                                  MODFLOW-2005     
      U.S. GEOLOGICAL SURVEY MODULAR FINITE-DIFFERENCE GROUND-WATER FLOW MODEL
                            VERSION 1.12.00 2/3/2017

 LIST FILE: Test01.list
                         UNIT    2

 OPENING Test01.dis
 FILE TYPE:DIS   UNIT   11   STATUS:OLD    
 FORMAT:FORMATTED              ACCESS:SEQUENTIAL          

 OPENING Test01.bas
 FILE TYPE:BAS6   UNIT   13   STATUS:OLD    
 FORMAT:FORMATTED              ACCESS:SEQUENTIAL          

 OPENING Test01.lpf
 FILE TYPE:LPF   UNIT   15   STATUS:OLD    
 FORMAT:FORMATTED              ACCESS:SEQUENTIAL          

 OPENING Test01.pcg
 FILE TYPE:PCG   UNIT   27   STATUS:OLD    
 FORMAT:FORMATTED              ACCESS:SEQUENTIAL          

 OPENING Test01.ghb
 FILE TYPE:GHB   UNIT   23   STATUS:OLD    
 FORMAT:FORMATTED              ACCESS:SEQUENTIAL          

 OPENING Test01.wel
 FILE TYPE:WEL   UNIT   20   STATUS:OLD    
 FORMAT:FORMATTED              ACCESS:SEQUENTIAL          

 OPENING Test01.oc
 FILE TYPE:OC   UNIT   14   STATUS:OLD    
 FORMAT:FORMATTED              ACCESS:SEQUENTIAL          

 OPENING Test01.cbc
 FILE TYPE:DATA(BINARY)   UNIT   53   STATUS:REPLACE
 FORMAT:BINARY                 ACCESS:SEQUENTIAL          

 OPENING Test01.hds
 FILE TYPE:DATA(BINARY)   UNIT   51   STATUS:REPLACE
 FORMAT:BINARY                 ACCESS:SEQUENTIAL          

 OPENING Test01.ddn
 FILE TYPE:DATA(BINARY)   UNIT   52   STATUS:REPLACE
 FORMAT:BINARY                 ACCESS:SEQUENTIAL          

 BAS -- BASIC PACKAGE, VERSION 7, 5/2/2005 INPUT READ FROM UNIT   13
 
 MODFLOW was compiled using mixed precision
 Precision of REAL variables:           6
 Precision of DOUBLE PRECISION variables:          15

 DISCRETIZATION INPUT DATA READ FROM UNIT   11
 # DIS package for  MODFLOW-2005, generated by Flopy.
    4 LAYERS        10 ROWS        10 COLUMNS
    3 STRESS PERIOD(S) IN SIMULATION
 MODEL TIME UNIT IS DAYS
 MODEL LENGTH UNIT IS METERS
  Confining bed flag for each layer:
   0   0   0   0

                     DELR =   100.000    

                     DELC =   100.000    

 TOP ELEVATION OF LAYER 1 =   10.0000    

   MODEL LAYER BOTTOM EL. =  -5.00000     FOR LAYER   1

   MODEL LAYER BOTTOM EL. =  -20.0000     FOR LAYER   2

   MODEL LAYER BOTTOM EL. =  -35.0000     FOR LAYER   3

   MODEL LAYER BOTTOM EL. =  -50.0000     FOR LAYER   4


 STRESS PERIOD     LENGTH       TIME STEPS     MULTIPLIER FOR DELT    SS FLAG
 ----------------------------------------------------------------------------
        1         1.000000          1                    1.000         SS
        2         100.0000        100                    1.000         TR
        3         100.0000        100                    1.000         TR

 COMBINED STEADY-STATE AND TRANSIENT SIMULATION



 
 # BAS6 package for  MODFLOW-2005, generated by Flopy.                           
 THE FREE FORMAT OPTION HAS BEEN SELECTED



                     BOUNDARY ARRAY FOR LAYER   1
 READING ON UNIT   13 WITH FORMAT: (10I10)             



                     BOUNDARY ARRAY FOR LAYER   2
 READING ON UNIT   13 WITH FORMAT: (10I10)             



                     BOUNDARY ARRAY FOR LAYER   3
 READING ON UNIT   13 WITH FORMAT: (10I10)             



                     BOUNDARY ARRAY FOR LAYER   4
 READING ON UNIT   13 WITH FORMAT: (10I10)             

 AQUIFER HEAD WILL BE SET TO  -999.99     AT ALL NO-FLOW NODES (IBOUND=0).



                       INITIAL HEAD FOR LAYER   1
 READING ON UNIT   13 WITH FORMAT: (10E15.6)           



                       INITIAL HEAD FOR LAYER   2
 READING ON UNIT   13 WITH FORMAT: (10E15.6)           



                       INITIAL HEAD FOR LAYER   3
 READING ON UNIT   13 WITH FORMAT: (10E15.6)           



                       INITIAL HEAD FOR LAYER   4
 READING ON UNIT   13 WITH FORMAT: (10E15.6)           
 # OC package for  MODFLOW-2005, generated by Flopy.

 OUTPUT CONTROL IS SPECIFIED ONLY AT TIME STEPS FOR WHICH OUTPUT IS DESIRED
 COMPACT CELL-BY-CELL BUDGET FILES WILL BE WRITTEN
 AUXILIARY DATA WILL BE SAVED IN CELL-BY-CELL BUDGET FILES
 HEAD PRINT FORMAT CODE IS   0    DRAWDOWN PRINT FORMAT CODE IS   0
 HEADS WILL BE SAVED ON UNIT   51    DRAWDOWNS WILL BE SAVED ON UNIT   52

 LPF -- LAYER-PROPERTY FLOW PACKAGE, VERSION 7, 5/2/2005
         INPUT READ FROM UNIT   15
 # LPF package for  MODFLOW-2005, generated by Flopy.
 CELL-BY-CELL FLOWS WILL BE SAVED ON UNIT   53
 HEAD AT CELLS THAT CONVERT TO DRY= -1.00000E+30
 No named parameters

   LAYER FLAGS:
 LAYER       LAYTYP        LAYAVG         CHANI        LAYVKA        LAYWET
 ---------------------------------------------------------------------------
    1             0             0     1.000E+00             0             0
    2             0             0     1.000E+00             0             0
    3             0             0     1.000E+00             0             0
    4             0             0     1.000E+00             0             0

   INTERPRETATION OF LAYER FLAGS:
                        INTERBLOCK     HORIZONTAL    DATA IN
         LAYER TYPE   TRANSMISSIVITY   ANISOTROPY   ARRAY VKA   WETTABILITY
 LAYER      (LAYTYP)      (LAYAVG)       (CHANI)      (LAYVKA)      (LAYWET)
 ---------------------------------------------------------------------------
    1      CONFINED      HARMONIC     1.000E+00    VERTICAL K  NON-WETTABLE
    2      CONFINED      HARMONIC     1.000E+00    VERTICAL K  NON-WETTABLE
    3      CONFINED      HARMONIC     1.000E+00    VERTICAL K  NON-WETTABLE
    4      CONFINED      HARMONIC     1.000E+00    VERTICAL K  NON-WETTABLE

 WETTING CAPABILITY IS NOT ACTIVE IN ANY LAYER

    HYD. COND. ALONG ROWS =   1.00000     FOR LAYER   1

      VERTICAL HYD. COND. =   1.00000     FOR LAYER   1

         SPECIFIC STORAGE =  1.000000E-04 FOR LAYER   1

    HYD. COND. ALONG ROWS =   1.00000     FOR LAYER   2

      VERTICAL HYD. COND. =   1.00000     FOR LAYER   2

         SPECIFIC STORAGE =  1.000000E-04 FOR LAYER   2

    HYD. COND. ALONG ROWS =   1.00000     FOR LAYER   3

      VERTICAL HYD. COND. =   1.00000     FOR LAYER   3

         SPECIFIC STORAGE =  1.000000E-04 FOR LAYER   3

    HYD. COND. ALONG ROWS =   1.00000     FOR LAYER   4

      VERTICAL HYD. COND. =   1.00000     FOR LAYER   4

         SPECIFIC STORAGE =  1.000000E-04 FOR LAYER   4

 WEL -- WELL PACKAGE, VERSION 7, 5/2/2005 INPUT READ FROM UNIT   20
 # WEL package for  MODFLOW-2005, generated by Flopy.
 No named parameters
 MAXIMUM OF      1 ACTIVE WELLS AT ONE TIME


     0 Well parameters

 GHB -- GENERAL-HEAD BOUNDARY PACKAGE, VERSION 7, 5/2/2005
         INPUT READ FROM UNIT   23
 # GHB package for  MODFLOW-2005, generated by Flopy.
 No named parameters
 MAXIMUM OF     80 ACTIVE GHB CELLS AT ONE TIME


     0 GHB parameters

 PCG -- CONJUGATE-GRADIENT SOLUTION PACKAGE, VERSION 7, 5/2/2005
 # PCG package for  MODFLOW-2005, generated by Flopy.
 MAXIMUM OF     50 CALLS OF SOLUTION ROUTINE
 MAXIMUM OF     30 INTERNAL ITERATIONS PER CALL TO SOLUTION ROUTINE
 MATRIX PRECONDITIONING TYPE :    1



                                    SOLUTION BY THE CONJUGATE-GRADIENT METHOD
                                   -------------------------------------------
                    MAXIMUM NUMBER OF CALLS TO PCG ROUTINE =       50
                        MAXIMUM ITERATIONS PER CALL TO PCG =       30
                               MATRIX PRECONDITIONING TYPE =        1
        RELAXATION FACTOR (ONLY USED WITH PRECOND. TYPE 1) =    0.10000E+01
 PARAMETER OF POLYNOMIAL PRECOND. = 2 (2) OR IS CALCULATED :        0
                         HEAD CHANGE CRITERION FOR CLOSURE =    0.10000E-04
                     RESIDUAL CHANGE CRITERION FOR CLOSURE =    0.10000E-04
            PCG HEAD AND RESIDUAL CHANGE PRINTOUT INTERVAL =      999
     PRINTING FROM SOLVER IS LIMITED(1) OR SUPPRESSED (>1) =        3
                            STEADY-STATE DAMPING PARAMETER =    0.10000E+01
                               TRANSIENT DAMPING PARAMETER =    0.10000E+01
1
                            STRESS PERIOD NO.    1, LENGTH =   1.000000    
                            -----------------------------------------------

                              NUMBER OF TIME STEPS =     1

                               MULTIPLIER FOR DELT =     1.000

                            INITIAL TIME STEP SIZE =   1.000000    

 WELL NO.  LAYER   ROW   COL   STRESS RATE         
 --------------------------------------------------
      1      1      5      5       0.000    

      1 WELL 

 BOUND. NO. LAYER   ROW   COL     STAGE      CONDUCTANCE         
 ----------------------------------------------------------------
      1      1      1      1       10.00           6000.    
      2      1      1     10       0.000           5000.    
      3      1      2      1       10.00           6000.    
      4      1      2     10       0.000           5000.    
      5      1      3      1       10.00           6000.    
      6      1      3     10       0.000           5000.    
      7      1      4      1       10.00           6000.    
      8      1      4     10       0.000           5000.    
      9      1      5      1       10.00           6000.    
     10      1      5     10       0.000           5000.    
     11      1      6      1       10.00           6000.    
     12      1      6     10       0.000           5000.    
     13      1      7      1       10.00           6000.    
     14      1      7     10       0.000           5000.    
     15      1      8      1       10.00           6000.    
     16      1      8     10       0.000           5000.    
     17      1      9      1       10.00           6000.    
     18      1      9     10       0.000           5000.    
     19      1     10      1       10.00           6000.    
     20      1     10     10       0.000           5000.    
     21      2      1      1       10.00           6000.    
     22      2      1     10       0.000           5000.    
     23      2      2      1       10.00           6000.    
     24      2      2     10       0.000           5000.    
     25      2      3      1       10.00           6000.    
     26      2      3     10       0.000           5000.    
     27      2      4      1       10.00           6000.    
     28      2      4     10       0.000           5000.    
     29      2      5      1       10.00           6000.    
     30      2      5     10       0.000           5000.    
     31      2      6      1       10.00           6000.    
     32      2      6     10       0.000           5000.    
     33      2      7      1       10.00           6000.    
     34      2      7     10       0.000           5000.    
     35      2      8      1       10.00           6000.    
     36      2      8     10       0.000           5000.    
     37      2      9      1       10.00           6000.    
     38      2      9     10       0.000           5000.    
     39      2     10      1       10.00           6000.    
     40      2     10     10       0.000           5000.    
     41      3      1      1       10.00           6000.    
     42      3      1     10       0.000           5000.    
     43      3      2      1       10.00           6000.    
     44      3      2     10       0.000           5000.    
     45      3      3      1       10.00           6000.    
     46      3      3     10       0.000           5000.    
     47      3      4      1       10.00           6000.    
     48      3      4     10       0.000           5000.    
     49      3      5      1       10.00           6000.    
     50      3      5     10       0.000           5000.    
     51      3      6      1       10.00           6000.    
     52      3      6     10       0.000           5000.    
     53      3      7      1       10.00           6000.    
     54      3      7     10       0.000           5000.    
     55      3      8      1       10.00           6000.    
     56      3      8     10       0.000           5000.    
     57      3      9      1       10.00           6000.    
     58      3      9     10       0.000           5000.    
     59      3     10      1       10.00           6000.    
     60      3     10     10       0.000           5000.    
     61      4      1      1       10.00           6000.    
     62      4      1     10       0.000           5000.    
     63      4      2      1       10.00           6000.    
     64      4      2     10       0.000           5000.    
     65      4      3      1       10.00           6000.    
     66      4      3     10       0.000           5000.    
     67      4      4      1       10.00           6000.    
     68      4      4     10       0.000           5000.    
     69      4      5      1       10.00           6000.    
     70      4      5     10       0.000           5000.    
     71      4      6      1       10.00           6000.    
     72      4      6     10       0.000           5000.    
     73      4      7      1       10.00           6000.    
     74      4      7     10       0.000           5000.    
     75      4      8      1       10.00           6000.    
     76      4      8     10       0.000           5000.    
     77      4      9      1       10.00           6000.    
     78      4      9     10       0.000           5000.    
     79      4     10      1       10.00           6000.    
     80      4     10     10       0.000           5000.    

     80 GHB CELLS
 
 SOLVING FOR HEAD 

 OUTPUT CONTROL FOR STRESS PERIOD    1   TIME STEP    1
    SAVE HEAD FOR ALL LAYERS
    SAVE DRAWDOWN FOR ALL LAYERS
    SAVE BUDGET
    PRINT HEAD FOR ALL LAYERS
    PRINT BUDGET
 UBDSV2 SAVING "   CONSTANT HEAD" ON UNIT  53 AT TIME STEP  1, STRESS PERIOD   1
 UBDSV1 SAVING "FLOW RIGHT FACE " ON UNIT  53 AT TIME STEP  1, STRESS PERIOD   1
 UBDSV1 SAVING "FLOW FRONT FACE " ON UNIT  53 AT TIME STEP  1, STRESS PERIOD   1
 UBDSV1 SAVING "FLOW LOWER FACE " ON UNIT  53 AT TIME STEP  1, STRESS PERIOD   1
1
              HEAD IN LAYER   1 AT END OF TIME STEP   1 IN STRESS PERIOD    1
  ---------------------------------------------------------------------------

            1           2           3           4           5           6           7           8           9          10
 ........................................................................................................................
   1    9.997       8.887       7.776       6.666       5.555       4.445       3.335       2.224       1.114      3.3313E-03
   2    9.997       8.887       7.776       6.666       5.555       4.445       3.335       2.224       1.114      3.3313E-03
   3    9.997       8.887       7.776       6.666       5.555       4.445       3.335       2.224       1.114      3.3313E-03
   4    9.997       8.887       7.776       6.666       5.555       4.445       3.335       2.224       1.114      3.3313E-03
   5    9.997       8.887       7.776       6.666       5.555       4.445       3.335       2.224       1.114      3.3313E-03
   6    9.997       8.887       7.776       6.666       5.555       4.445       3.335       2.224       1.114      3.3313E-03
   7    9.997       8.887       7.776       6.666       5.555       4.445       3.335       2.224       1.114      3.3313E-03
   8    9.997       8.887       7.776       6.666       5.555       4.445       3.335       2.224       1.114      3.3313E-03
   9    9.997       8.887       7.776       6.666       5.555       4.445       3.335       2.224       1.114      3.3313E-03
  10    9.997       8.887       7.776       6.666       5.555       4.445       3.335       2.224       1.114      3.3313E-03
1
              HEAD IN LAYER   2 AT END OF TIME STEP   1 IN STRESS PERIOD    1
  ---------------------------------------------------------------------------

            1           2           3           4           5           6           7           8           9          10
 ........................................................................................................................
   1    9.997       8.887       7.776       6.666       5.555       4.445       3.335       2.224       1.114      3.3313E-03
   2    9.997       8.887       7.776       6.666       5.555       4.445       3.335       2.224       1.114      3.3313E-03
   3    9.997       8.887       7.776       6.666       5.555       4.445       3.335       2.224       1.114      3.3313E-03
   4    9.997       8.887       7.776       6.666       5.555       4.445       3.335       2.224       1.114      3.3313E-03
   5    9.997       8.887       7.776       6.666       5.555       4.445       3.335       2.224       1.114      3.3313E-03
   6    9.997       8.887       7.776       6.666       5.555       4.445       3.335       2.224       1.114      3.3313E-03
   7    9.997       8.887       7.776       6.666       5.555       4.445       3.335       2.224       1.114      3.3313E-03
   8    9.997       8.887       7.776       6.666       5.555       4.445       3.335       2.224       1.114      3.3313E-03
   9    9.997       8.887       7.776       6.666       5.555       4.445       3.335       2.224       1.114      3.3313E-03
  10    9.997       8.887       7.776       6.666       5.555       4.445       3.335       2.224       1.114      3.3313E-03
1
              HEAD IN LAYER   3 AT END OF TIME STEP   1 IN STRESS PERIOD    1
  ---------------------------------------------------------------------------

            1           2           3           4           5           6           7           8           9          10
 ........................................................................................................................
   1    9.997       8.887       7.776       6.666       5.555       4.445       3.335       2.224       1.114      3.3313E-03
   2    9.997       8.887       7.776       6.666       5.555       4.445       3.335       2.224       1.114      3.3313E-03
   3    9.997       8.887       7.776       6.666       5.555       4.445       3.335       2.224       1.114      3.3313E-03
   4    9.997       8.887       7.776       6.666       5.555       4.445       3.335       2.224       1.114      3.3313E-03
   5    9.997       8.887       7.776       6.666       5.555       4.445       3.335       2.224       1.114      3.3313E-03
   6    9.997       8.887       7.776       6.666       5.555       4.445       3.335       2.224       1.114      3.3313E-03
   7    9.997       8.887       7.776       6.666       5.555       4.445       3.335       2.224       1.114      3.3313E-03
   8    9.997       8.887       7.776       6.666       5.555       4.445       3.335       2.224       1.114      3.3313E-03
   9    9.997       8.887       7.776       6.666       5.555       4.445       3.335       2.224       1.114      3.3313E-03
  10    9.997       8.887       7.776       6.666       5.555       4.445       3.335       2.224       1.114      3.3313E-03
1
              HEAD IN LAYER   4 AT END OF TIME STEP   1 IN STRESS PERIOD    1
  ---------------------------------------------------------------------------

            1           2           3           4           5           6           7           8           9          10
 ........................................................................................................................
   1    9.997       8.887       7.776       6.666       5.555       4.445       3.335       2.224       1.114      3.3313E-03
   2    9.997       8.887       7.776       6.666       5.555       4.445       3.335       2.224       1.114      3.3313E-03
   3    9.997       8.887       7.776       6.666       5.555       4.445       3.335       2.224       1.114      3.3313E-03
   4    9.997       8.887       7.776       6.666       5.555       4.445       3.335       2.224       1.114      3.3313E-03
   5    9.997       8.887       7.776       6.666       5.555       4.445       3.335       2.224       1.114      3.3313E-03
   6    9.997       8.887       7.776       6.666       5.555       4.445       3.335       2.224       1.114      3.3313E-03
   7    9.997       8.887       7.776       6.666       5.555       4.445       3.335       2.224       1.114      3.3313E-03
   8    9.997       8.887       7.776       6.666       5.555       4.445       3.335       2.224       1.114      3.3313E-03
   9    9.997       8.887       7.776       6.666       5.555       4.445       3.335       2.224       1.114      3.3313E-03
  10    9.997       8.887       7.776       6.666       5.555       4.445       3.335       2.224       1.114      3.3313E-03

 HEAD WILL BE SAVED ON UNIT   51 AT END OF TIME STEP    1, STRESS PERIOD    1

 DRAWDOWN WILL BE SAVED ON UNIT   52 AT END OF TIME STEP    1, STRESS PERIOD    1
1
  VOLUMETRIC BUDGET FOR ENTIRE MODEL AT END OF TIME STEP    1, STRESS PERIOD   1
  ------------------------------------------------------------------------------

     CUMULATIVE VOLUMES      L**3       RATES FOR THIS TIME STEP      L**3/T
     ------------------                 ------------------------

           IN:                                      IN:
           ---                                      ---
             STORAGE =           0.0000               STORAGE =           0.0000
       CONSTANT HEAD =           0.0000         CONSTANT HEAD =           0.0000
               WELLS =           0.0000                 WELLS =           0.0000
     HEAD DEP BOUNDS =         666.2595       HEAD DEP BOUNDS =         666.2595

            TOTAL IN =         666.2595              TOTAL IN =         666.2595

          OUT:                                     OUT:
          ----                                     ----
             STORAGE =           0.0000               STORAGE =           0.0000
       CONSTANT HEAD =           0.0000         CONSTANT HEAD =           0.0000
               WELLS =           0.0000                 WELLS =           0.0000
     HEAD DEP BOUNDS =         666.2595       HEAD DEP BOUNDS =         666.2595

           TOTAL OUT =         666.2595             TOTAL OUT =         666.2595

            IN - OUT =           0.0000              IN - OUT =           0.0000

 PERCENT DISCREPANCY =           0.00     PERCENT DISCREPANCY =           0.00






         TIME SUMMARY AT END OF TIME STEP    1 IN STRESS PERIOD    1
                    SECONDS     MINUTES      HOURS       DAYS        YEARS
                    -----------------------------------------------------------
   TIME STEP LENGTH  86400.      1440.0      24.000      1.0000     2.73785E-03
 STRESS PERIOD TIME  86400.      1440.0      24.000      1.0000     2.73785E-03
         TOTAL TIME  86400.      1440.0      24.000      1.0000     2.73785E-03
1
1
                            STRESS PERIOD NO.    2, LENGTH =   100.0000    
                            -----------------------------------------------

                              NUMBER OF TIME STEPS =   100

                               MULTIPLIER FOR DELT =     1.000

                            INITIAL TIME STEP SIZE =   1.000000    

 WELL NO.  LAYER   ROW   COL   STRESS RATE         
 --------------------------------------------------
      1      1      5      5       0.000    

      1 WELL 

 BOUND. NO. LAYER   ROW   COL     STAGE      CONDUCTANCE         
 ----------------------------------------------------------------
      1      1      1      1       10.00           6000.    
      2      1      1     10       0.000           5000.    
      3      1      2      1       10.00           6000.    
      4      1      2     10       0.000           5000.    
      5      1      3      1       10.00           6000.    
      6      1      3     10       0.000           5000.    
      7      1      4      1       10.00           6000.    
      8      1      4     10       0.000           5000.    
      9      1      5      1       10.00           6000.    
     10      1      5     10       0.000           5000.    
     11      1      6      1       10.00           6000.    
     12      1      6     10       0.000           5000.    
     13      1      7      1       10.00           6000.    
     14      1      7     10       0.000           5000.    
     15      1      8      1       10.00           6000.    
     16      1      8     10       0.000           5000.    
     17      1      9      1       10.00           6000.    
     18      1      9     10       0.000           5000.    
     19      1     10      1       10.00           6000.    
     20      1     10     10       0.000           5000.    
     21      2      1      1       10.00           6000.    
     22      2      1     10       0.000           5000.    
     23      2      2      1       10.00           6000.    
     24      2      2     10       0.000           5000.    
     25      2      3      1       10.00           6000.    
     26      2      3     10       0.000           5000.    
     27      2      4      1       10.00           6000.    
     28      2      4     10       0.000           5000.    
     29      2      5      1       10.00           6000.    
     30      2      5     10       0.000           5000.    
     31      2      6      1       10.00           6000.    
     32      2      6     10       0.000           5000.    
     33      2      7      1       10.00           6000.    
     34      2      7     10       0.000           5000.    
     35      2      8      1       10.00           6000.    
     36      2      8     10       0.000           5000.    
     37      2      9      1       10.00           6000.    
     38      2      9     10       0.000           5000.    
     39      2     10      1       10.00           6000.    
     40      2     10     10       0.000           5000.    
     41      3      1      1       10.00           6000.    
     42      3      1     10       0.000           5000.    
     43      3      2      1       10.00           6000.    
     44      3      2     10       0.000           5000.    
     45      3      3      1       10.00           6000.    
     46      3      3     10       0.000           5000.    
     47      3      4      1       10.00           6000.    
     48      3      4     10       0.000           5000.    
     49      3      5      1       10.00           6000.    
     50      3      5     10       0.000           5000.    
     51      3      6      1       10.00           6000.    
     52      3      6     10       0.000           5000.    
     53      3      7      1       10.00           6000.    
     54      3      7     10       0.000           5000.    
     55      3      8      1       10.00           6000.    
     56      3      8     10       0.000           5000.    
     57      3      9      1       10.00           6000.    
     58      3      9     10       0.000           5000.    
     59      3     10      1       10.00           6000.    
     60      3     10     10       0.000           5000.    
     61      4      1      1       10.00           6000.    
     62      4      1     10       0.000           5000.    
     63      4      2      1       10.00           6000.    
     64      4      2     10       0.000           5000.    
     65      4      3      1       10.00           6000.    
     66      4      3     10       0.000           5000.    
     67      4      4      1       10.00           6000.    
     68      4      4     10       0.000           5000.    
     69      4      5      1       10.00           6000.    
     70      4      5     10       0.000           5000.    
     71      4      6      1       10.00           6000.    
     72      4      6     10       0.000           5000.    
     73      4      7      1       10.00           6000.    
     74      4      7     10       0.000           5000.    
     75      4      8      1       10.00           6000.    
     76      4      8     10       0.000           5000.    
     77      4      9      1       10.00           6000.    
     78      4      9     10       0.000           5000.    
     79      4     10      1       10.00           6000.    
     80      4     10     10       0.000           5000.    

     80 GHB CELLS
 
 SOLVING FOR HEAD 

 OUTPUT CONTROL FOR STRESS PERIOD    2   TIME STEP    1
    SAVE HEAD FOR ALL LAYERS
    SAVE DRAWDOWN FOR ALL LAYERS
    SAVE BUDGET
    PRINT HEAD FOR ALL LAYERS
    PRINT BUDGET
 UBDSV1 SAVING "         STORAGE" ON UNIT  53 AT TIME STEP  1, STRESS PERIOD   2
 UBDSV2 SAVING "   CONSTANT HEAD" ON UNIT  53 AT TIME STEP  1, STRESS PERIOD   2
 UBDSV1 SAVING "FLOW RIGHT FACE " ON UNIT  53 AT TIME STEP  1, STRESS PERIOD   2
 UBDSV1 SAVING "FLOW FRONT FACE " ON UNIT  53 AT TIME STEP  1, STRESS PERIOD   2
 UBDSV1 SAVING "FLOW LOWER FACE " ON UNIT  53 AT TIME STEP  1, STRESS PERIOD   2
1
              HEAD IN LAYER   1 AT END OF TIME STEP   1 IN STRESS PERIOD    2
  ---------------------------------------------------------------------------

            1           2           3           4           5           6           7           8           9          10
 ........................................................................................................................
   1    9.997       8.887       7.776       6.666       5.555       4.445       3.335       2.224       1.114      3.3313E-03
   2    9.997       8.887       7.776       6.666       5.555       4.445       3.335       2.224       1.114      3.3313E-03
   3    9.997       8.887       7.776       6.666       5.555       4.445       3.335       2.224       1.114      3.3313E-03
   4    9.997       8.887       7.776       6.666       5.555       4.445       3.335       2.224       1.114      3.3313E-03
   5    9.997       8.887       7.776       6.666       5.555       4.445       3.335       2.224       1.114      3.3313E-03
   6    9.997       8.887       7.776       6.666       5.555       4.445       3.335       2.224       1.114      3.3313E-03
   7    9.997       8.887       7.776       6.666       5.555       4.445       3.335       2.224       1.114      3.3313E-03
   8    9.997       8.887       7.776       6.666       5.555       4.445       3.335       2.224       1.114      3.3313E-03
   9    9.997       8.887       7.776       6.666       5.555       4.445       3.335       2.224       1.114      3.3313E-03
  10    9.997       8.887       7.776       6.666       5.555       4.445       3.335       2.224       1.114      3.3313E-03
1
              HEAD IN LAYER   2 AT END OF TIME STEP   1 IN STRESS PERIOD    2
  ---------------------------------------------------------------------------

            1           2           3           4           5           6           7           8           9          10
 ........................................................................................................................
   1    9.997       8.887       7.776       6.666       5.555       4.445       3.335       2.224       1.114      3.3313E-03
   2    9.997       8.887       7.776       6.666       5.555       4.445       3.335       2.224       1.114      3.3313E-03
   3    9.997       8.887       7.776       6.666       5.555       4.445       3.335       2.224       1.114      3.3313E-03
   4    9.997       8.887       7.776       6.666       5.555       4.445       3.335       2.224       1.114      3.3313E-03
   5    9.997       8.887       7.776       6.666       5.555       4.445       3.335       2.224       1.114      3.3313E-03
   6    9.997       8.887       7.776       6.666       5.555       4.445       3.335       2.224       1.114      3.3313E-03
   7    9.997       8.887       7.776       6.666       5.555       4.445       3.335       2.224       1.114      3.3313E-03
   8    9.997       8.887       7.776       6.666       5.555       4.445       3.335       2.224       1.114      3.3313E-03
   9    9.997       8.887       7.776       6.666       5.555       4.445       3.335       2.224       1.114      3.3313E-03
  10    9.997       8.887       7.776       6.666       5.555       4.445       3.335       2.224       1.114      3.3313E-03
1
              HEAD IN LAYER   3 AT END OF TIME STEP   1 IN STRESS PERIOD    2
  ---------------------------------------------------------------------------

            1           2           3           4           5           6           7           8           9          10
 ........................................................................................................................
   1    9.997       8.887       7.776       6.666       5.555       4.445       3.335       2.224       1.114      3.3313E-03
   2    9.997       8.887       7.776       6.666       5.555       4.445       3.335       2.224       1.114      3.3313E-03
   3    9.997       8.887       7.776       6.666       5.555       4.445       3.335       2.224       1.114      3.3313E-03
   4    9.997       8.887       7.776       6.666       5.555       4.445       3.335       2.224       1.114      3.3313E-03
   5    9.997       8.887       7.776       6.666       5.555       4.445       3.335       2.224       1.114      3.3313E-03
   6    9.997       8.887       7.776       6.666       5.555       4.445       3.335       2.224       1.114      3.3313E-03
   7    9.997       8.887       7.776       6.666       5.555       4.445       3.335       2.224       1.114      3.3313E-03
   8    9.997       8.887       7.776       6.666       5.555       4.445       3.335       2.224       1.114      3.3313E-03
   9    9.997       8.887       7.776       6.666       5.555       4.445       3.335       2.224       1.114      3.3313E-03
  10    9.997       8.887       7.776       6.666       5.555       4.445       3.335       2.224       1.114      3.3313E-03
1
              HEAD IN LAYER   4 AT END OF TIME STEP   1 IN STRESS PERIOD    2
  ---------------------------------------------------------------------------

            1           2           3           4           5           6           7           8           9          10
 ........................................................................................................................
   1    9.997       8.887       7.776       6.666       5.555       4.445       3.335       2.224       1.114      3.3313E-03
   2    9.997       8.887       7.776       6.666       5.555       4.445       3.335       2.224       1.114      3.3313E-03
   3    9.997       8.887       7.776       6.666       5.555       4.445       3.335       2.224       1.114      3.3313E-03
   4    9.997       8.887       7.776       6.666       5.555       4.445       3.335       2.224       1.114      3.3313E-03
   5    9.997       8.887       7.776       6.666       5.555       4.445       3.335       2.224       1.114      3.3313E-03
   6    9.997       8.887       7.776       6.666       5.555       4.445       3.335       2.224       1.114      3.3313E-03
   7    9.997       8.887       7.776       6.666       5.555       4.445       3.335       2.224       1.114      3.3313E-03
   8    9.997       8.887       7.776       6.666       5.555       4.445       3.335       2.224       1.114      3.3313E-03
   9    9.997       8.887       7.776       6.666       5.555       4.445       3.335       2.224       1.114      3.3313E-03
  10    9.997       8.887       7.776       6.666       5.555       4.445       3.335       2.224       1.114      3.3313E-03

 HEAD WILL BE SAVED ON UNIT   51 AT END OF TIME STEP    1, STRESS PERIOD    2

 DRAWDOWN WILL BE SAVED ON UNIT   52 AT END OF TIME STEP    1, STRESS PERIOD    2
1
  VOLUMETRIC BUDGET FOR ENTIRE MODEL AT END OF TIME STEP    1, STRESS PERIOD   2
  ------------------------------------------------------------------------------

     CUMULATIVE VOLUMES      L**3       RATES FOR THIS TIME STEP      L**3/T
     ------------------                 ------------------------

           IN:                                      IN:
           ---                                      ---
             STORAGE =       1.0477E-08               STORAGE =       1.0477E-08
       CONSTANT HEAD =           0.0000         CONSTANT HEAD =           0.0000
               WELLS =           0.0000                 WELLS =           0.0000
     HEAD DEP BOUNDS =        1332.5715       HEAD DEP BOUNDS =         666.3120

            TOTAL IN =        1332.5715              TOTAL IN =         666.3120

          OUT:                                     OUT:
          ----                                     ----
             STORAGE =       5.2387E-08               STORAGE =       5.2387E-08
       CONSTANT HEAD =           0.0000         CONSTANT HEAD =           0.0000
               WELLS =           0.0000                 WELLS =           0.0000
     HEAD DEP BOUNDS =        1332.5190       HEAD DEP BOUNDS =         666.2595

           TOTAL OUT =        1332.5190             TOTAL OUT =         666.2595

            IN - OUT =       5.2490E-02              IN - OUT =       5.2490E-02

 PERCENT DISCREPANCY =           0.00     PERCENT DISCREPANCY =           0.01






         TIME SUMMARY AT END OF TIME STEP    1 IN STRESS PERIOD    2
                    SECONDS     MINUTES      HOURS       DAYS        YEARS
                    -----------------------------------------------------------
   TIME STEP LENGTH  86400.      1440.0      24.000      1.0000     2.73785E-03
 STRESS PERIOD TIME  86400.      1440.0      24.000      1.0000     2.73785E-03
         TOTAL TIME 1.72800E+05  2880.0      48.000      2.0000     5.47570E-03
1
 
 SOLVING FOR HEAD 

 OUTPUT CONTROL FOR STRESS PERIOD    2   TIME STEP    2
    SAVE HEAD FOR ALL LAYERS
    SAVE DRAWDOWN FOR ALL LAYERS
    SAVE BUDGET
    PRINT HEAD FOR ALL LAYERS
    PRINT BUDGET
 UBDSV1 SAVING "         STORAGE" ON UNIT  53 AT TIME STEP  2, STRESS PERIOD   2
 UBDSV2 SAVING "   CONSTANT HEAD" ON UNIT  53 AT TIME STEP  2, STRESS PERIOD   2
 UBDSV1 SAVING "FLOW RIGHT FACE " ON UNIT  53 AT TIME STEP  2, STRESS PERIOD   2
 UBDSV1 SAVING "FLOW FRONT FACE " ON UNIT  53 AT TIME STEP  2, STRESS PERIOD   2
 UBDSV1 SAVING "FLOW LOWER FACE " ON UNIT  53 AT TIME STEP  2, STRESS PERIOD   2
1
              HEAD IN LAYER   1 AT END OF TIME STEP   2 IN STRESS PERIOD    2
  ---------------------------------------------------------------------------

            1           2           3           4           5           6           7           8           9          10
 ........................................................................................................................
   1    9.997       8.887       7.776       6.666       5.555       4.445       3.335       2.224       1.114      3.3313E-03
   2    9.997       8.887       7.776       6.666       5.555       4.445       3.335       2.224       1.114      3.3313E-03
   3    9.997       8.887       7.776       6.666       5.555       4.445       3.335       2.224       1.114      3.3313E-03
   4    9.997       8.887       7.776       6.666       5.555       4.445       3.335       2.224       1.114      3.3313E-03
   5    9.997       8.887       7.776       6.666       5.555       4.445       3.335       2.224       1.114      3.3313E-03
   6    9.997       8.887       7.776       6.666       5.555       4.445       3.335       2.224       1.114      3.3313E-03
   7    9.997       8.887       7.776       6.666       5.555       4.445       3.335       2.224       1.114      3.3313E-03
   8    9.997       8.887       7.776       6.666       5.555       4.445       3.335       2.224       1.114      3.3313E-03
   9    9.997       8.887       7.776       6.666       5.555       4.445       3.335       2.224       1.114      3.3313E-03
  10    9.997       8.887       7.776       6.666       5.555       4.445       3.335       2.224       1.114      3.3313E-03
1
              HEAD IN LAYER   2 AT END OF TIME STEP   2 IN STRESS PERIOD    2
  ---------------------------------------------------------------------------

            1           2           3           4           5           6           7           8           9          10
 ........................................................................................................................
   1    9.997       8.887       7.776       6.666       5.555       4.445       3.335       2.224       1.114      3.3313E-03
   2    9.997       8.887       7.776       6.666       5.555       4.445       3.335       2.224       1.114      3.3313E-03
   3    9.997       8.887       7.776       6.666       5.555       4.445       3.335       2.224       1.114      3.3313E-03
   4    9.997       8.887       7.776       6.666       5.555       4.445       3.335       2.224       1.114      3.3313E-03
   5    9.997       8.887       7.776       6.666       5.555       4.445       3.335       2.224       1.114      3.3313E-03
   6    9.997       8.887       7.776       6.666       5.555       4.445       3.335       2.224       1.114      3.3313E-03
   7    9.997       8.887       7.776       6.666       5.555       4.445       3.335       2.224       1.114      3.3313E-03
   8    9.997       8.887       7.776       6.666       5.555       4.445       3.335       2.224       1.114      3.3313E-03
   9    9.997       8.887       7.776       6.666       5.555       4.445       3.335       2.224       1.114      3.3313E-03
  10    9.997       8.887       7.776       6.666       5.555       4.445       3.335       2.224       1.114      3.3313E-03
1
              HEAD IN LAYER   3 AT END OF TIME STEP   2 IN STRESS PERIOD    2
  ---------------------------------------------------------------------------

            1           2           3           4           5           6           7           8           9          10
 ........................................................................................................................
   1    9.997       8.887       7.776       6.666       5.555       4.445       3.335       2.224       1.114      3.3313E-03
   2    9.997       8.887       7.776       6.666       5.555       4.445       3.335       2.224       1.114      3.3313E-03
   3    9.997       8.887       7.776       6.666       5.555       4.445       3.335       2.224       1.114      3.3313E-03
   4    9.997       8.887       7.776       6.666       5.555       4.445       3.335       2.224       1.114      3.3313E-03
   5    9.997       8.887       7.776       6.666       5.555       4.445       3.335       2.224       1.114      3.3313E-03
   6    9.997       8.887       7.776       6.666       5.555       4.445       3.335       2.224       1.114      3.3313E-03
   7    9.997       8.887       7.776       6.666       5.555       4.445       3.335       2.224       1.114      3.3313E-03
   8    9.997       8.887       7.776       6.666       5.555       4.445       3.335       2.224       1.114      3.3313E-03
   9    9.997       8.887       7.776       6.666       5.555       4.445       3.335       2.224       1.114      3.3313E-03
  10    9.997       8.887       7.776       6.666       5.555       4.445       3.335       2.224       1.114      3.3313E-03
1
              HEAD IN LAYER   4 AT END OF TIME STEP   2 IN STRESS PERIOD    2
  ---------------------------------------------------------------------------

            1           2           3           4           5           6           7           8           9          10
 ........................................................................................................................
   1    9.997       8.887       7.776       6.666       5.555       4.445       3.335       2.224       1.114      3.3313E-03
   2    9.997       8.887       7.776       6.666       5.555       4.445       3.335       2.224       1.114      3.3313E-03
   3    9.997       8.887       7.776       6.666       5.555       4.445       3.335       2.224       1.114      3.3313E-03
   4    9.997       8.887       7.776       6.666       5.555       4.445       3.335       2.224       1.114      3.3313E-03
   5    9.997       8.887       7.776       6.666       5.555       4.445       3.335       2.224       1.114      3.3313E-03
   6    9.997       8.887       7.776       6.666       5.555       4.445       3.335       2.224       1.114      3.3313E-03
   7    9.997       8.887       7.776       6.666       5.555       4.445       3.335       2.224       1.114      3.3313E-03
   8    9.997       8.887       7.776       6.666       5.555       4.445       3.335       2.224       1.114      3.3313E-03
   9    9.997       8.887       7.776       6.666       5.555       4.445       3.335       2.224       1.114      3.3313E-03
  10    9.997       8.887       7.776       6.666       5.555       4.445       3.335       2.224       1.114      3.3313E-03

 HEAD WILL BE SAVED ON UNIT   51 AT END OF TIME STEP    2, STRESS PERIOD    2

 DRAWDOWN WILL BE SAVED ON UNIT   52 AT END OF TIME STEP    2, STRESS PERIOD    2
1
  VOLUMETRIC BUDGET FOR ENTIRE MODEL AT END OF TIME STEP    2, STRESS PERIOD   2
  ------------------------------------------------------------------------------

     CUMULATIVE VOLUMES      L**3       RATES FOR THIS TIME STEP      L**3/T
     ------------------                 ------------------------

           IN:                                      IN:
           ---                                      ---
             STORAGE =       1.0477E-08               STORAGE =           0.0000
       CONSTANT HEAD =           0.0000         CONSTANT HEAD =           0.0000
               WELLS =           0.0000                 WELLS =           0.0000
     HEAD DEP BOUNDS =        1998.8837       HEAD DEP BOUNDS =         666.3121

            TOTAL IN =        1998.8837              TOTAL IN =         666.3121

          OUT:                                     OUT:
          ----                                     ----
             STORAGE =       5.2387E-08               STORAGE =           0.0000
       CONSTANT HEAD =           0.0000         CONSTANT HEAD =           0.0000
               WELLS =           0.0000                 WELLS =           0.0000
     HEAD DEP BOUNDS =        1998.7786       HEAD DEP BOUNDS =         666.2595

           TOTAL OUT =        1998.7786             TOTAL OUT =         666.2595

            IN - OUT =           0.1051              IN - OUT =       5.2612E-02

 PERCENT DISCREPANCY =           0.01     PERCENT DISCREPANCY =           0.01






         TIME SUMMARY AT END OF TIME STEP    2 IN STRESS PERIOD    2
                    SECONDS     MINUTES      HOURS       DAYS        YEARS
                    -----------------------------------------------------------
   TIME STEP LENGTH  86400.      1440.0      24.000      1.0000     2.73785E-03
 STRESS PERIOD TIME 1.72800E+05  2880.0      48.000      2.0000     5.47570E-03
         TOTAL TIME 2.59200E+05  4320.0      72.000      3.0000     8.21355E-03
1
 
 SOLVING FOR HEAD 

 OUTPUT CONTROL FOR STRESS PERIOD    2   TIME STEP    3
    SAVE HEAD FOR ALL LAYERS
    SAVE DRAWDOWN FOR ALL LAYERS
    SAVE BUDGET
    PRINT HEAD FOR ALL LAYERS
    PRINT BUDGET
 UBDSV1 SAVING "         STORAGE" ON UNIT  53 AT TIME STEP  3, STRESS PERIOD   2
 UBDSV2 SAVING "   CONSTANT HEAD" ON UNIT  53 AT TIME STEP  3, STRESS PERIOD   2
 UBDSV1 SAVING "FLOW RIGHT FACE " ON UNIT  53 AT TIME STEP  3, STRESS PERIOD   2
 UBDSV1 SAVING "FLOW FRONT FACE " ON UNIT  53 AT TIME STEP  3, STRESS PERIOD   2
 UBDSV1 SAVING "FLOW LOWER FACE " ON UNIT  53 AT TIME STEP  3, STRESS PERIOD   2
1
              HEAD IN LAYER   1 AT END OF TIME STEP   3 IN STRESS PERIOD    2
  ---------------------------------------------------------------------------

            1           2           3           4           5           6           7           8           9          10
 ........................................................................................................................
   1    9.997       8.887       7.776       6.666       5.555       4.445       3.335       2.224       1.114      3.3313E-03
   2    9.997       8.887       7.776       6.666       5.555       4.445       3.335       2.224       1.114      3.3313E-03
   3    9.997       8.887       7.776       6.666       5.555       4.445       3.335       2.224       1.114      3.3313E-03
   4    9.997       8.887       7.776       6.666       5.555       4.445       3.335       2.224       1.114      3.3313E-03
   5    9.997       8.887       7.776       6.666       5.555       4.445       3.335       2.224       1.114      3.3313E-03
   6    9.997       8.887       7.776       6.666       5.555       4.445       3.335       2.224       1.114      3.3313E-03
   7    9.997       8.887       7.776       6.666       5.555       4.445       3.335       2.224       1.114      3.3313E-03
   8    9.997       8.887       7.776       6.666       5.555       4.445       3.335       2.224       1.114      3.3313E-03
   9    9.997       8.887       7.776       6.666       5.555       4.445       3.335       2.224       1.114      3.3313E-03
  10    9.997       8.887       7.776       6.666       5.555       4.445       3.335       2.224       1.114      3.3313E-03
1
              HEAD IN LAYER   2 AT END OF TIME STEP   3 IN STRESS PERIOD    2
  ---------------------------------------------------------------------------

            1           2           3           4           5           6           7           8           9          10
 ........................................................................................................................
   1    9.997       8.887       7.776       6.666       5.555       4.445       3.335       2.224       1.114      3.3313E-03
   2    9.997       8.887       7.776       6.666       5.555       4.445       3.335       2.224       1.114      3.3313E-03
   3    9.997       8.887       7.776       6.666       5.555       4.445       3.335       2.224       1.114      3.3313E-03
   4    9.997       8.887       7.776       6.666       5.555       4.445       3.335       2.224       1.114      3.3313E-03
   5    9.997       8.887       7.776       6.666       5.555       4.445       3.335       2.224       1.114      3.3313E-03
   6    9.997       8.887       7.776       6.666       5.555       4.445       3.335       2.224       1.114      3.3313E-03
   7    9.997       8.887       7.776       6.666       5.555       4.445       3.335       2.224       1.114      3.3313E-03
   8    9.997       8.887       7.776       6.666       5.555       4.445       3.335       2.224       1.114      3.3313E-03
   9    9.997       8.887       7.776       6.666       5.555       4.445       3.335       2.224       1.114      3.3313E-03
  10    9.997       8.887       7.776       6.666       5.555       4.445       3.335       2.224       1.114      3.3313E-03
1
              HEAD IN LAYER   3 AT END OF TIME STEP   3 IN STRESS PERIOD    2
  ---------------------------------------------------------------------------

            1           2           3           4           5           6           7           8           9          10
 ........................................................................................................................
   1    9.997       8.887       7.776       6.666       5.555       4.445       3.335       2.224       1.114      3.3313E-03
   2    9.997       8.887       7.776       6.666       5.555       4.445       3.335       2.224       1.114      3.3313E-03
   3    9.997       8.887       7.776       6.666       5.555       4.445       3.335       2.224       1.114      3.3313E-03
   4    9.997       8.887       7.776       6.666       5.555       4.445       3.335       2.224       1.114      3.3313E-03
   5    9.997       8.887       7.776       6.666       5.555       4.445       3.335       2.224       1.114      3.3313E-03
   6    9.997       8.887       7.776       6.666       5.555       4.445       3.335       2.224       1.114      3.3313E-03
   7    9.997       8.887       7.776       6.666       5.555       4.445       3.335       2.224       1.114      3.3313E-03
   8    9.997       8.887       7.776       6.666       5.555       4.445       3.335       2.224       1.114      3.3313E-03
   9    9.997       8.887       7.776       6.666       5.555       4.445       3.335       2.224       1.114      3.3313E-03
  10    9.997       8.887       7.776       6.666       5.555       4.445       3.335       2.224       1.114      3.3313E-03
1
              HEAD IN LAYER   4 AT END OF TIME STEP   3 IN STRESS PERIOD    2
  ---------------------------------------------------------------------------

            1           2           3           4           5           6           7           8           9          10
 ........................................................................................................................
   1    9.997       8.887       7.776       6.666       5.555       4.445       3.335       2.224       1.114      3.3313E-03
   2    9.997       8.887       7.776       6.666       5.555       4.445       3.335       2.224       1.114      3.3313E-03
   3    9.997       8.887       7.776       6.666       5.555       4.445       3.335       2.224       1.114      3.3313E-03
   4    9.997       8.887       7.776       6.666       5.555       4.445       3.335       2.224       1.114      3.3313E-03
   5    9.997       8.887       7.776       6.666       5.555       4.445       3.335       2.224       1.114      3.3313E-03
   6    9.997       8.887       7.776       6.666       5.555       4.445       3.335       2.224       1.114      3.3313E-03
   7    9.997       8.887       7.776       6.666       5.555       4.445       3.335       2.224       1.114      3.3313E-03
   8    9.997       8.887       7.776       6.666       5.555       4.445       3.335       2.224       1.114      3.3313E-03
   9    9.997       8.887       7.776       6.666       5.555       4.445       3.335       2.224       1.114      3.3313E-03
  10    9.997       8.887       7.776       6.666       5.555       4.445       3.335       2.224       1.114      3.3313E-03

 HEAD WILL BE SAVED ON UNIT   51 AT END OF TIME STEP    3, STRESS PERIOD    2

 DRAWDOWN WILL BE SAVED ON UNIT   52 AT END OF TIME STEP    3, STRESS PERIOD    2
1
  VOLUMETRIC BUDGET FOR ENTIRE MODEL AT END OF TIME STEP    3, STRESS PERIOD   2
  ------------------------------------------------------------------------------

     CUMULATIVE VOLUMES      L**3       RATES FOR THIS TIME STEP      L**3/T
     ------------------                 ------------------------

           IN:                                      IN:
           ---                                      ---
             STORAGE =       1.0477E-08               STORAGE =           0.0000
       CONSTANT HEAD =           0.0000         CONSTANT HEAD =           0.0000
               WELLS =           0.0000                 WELLS =           0.0000
     HEAD DEP BOUNDS =        2665.1958       HEAD DEP BOUNDS =         666.3123

            TOTAL IN =        2665.1958              TOTAL IN =         666.3123

          OUT:                                     OUT:
          ----                                     ----
             STORAGE =       5.2387E-08               STORAGE =           0.0000
       CONSTANT HEAD =           0.0000         CONSTANT HEAD =           0.0000
               WELLS =           0.0000                 WELLS =           0.0000
     HEAD DEP BOUNDS =        2665.0381       HEAD DEP BOUNDS =         666.2595

           TOTAL OUT =        2665.0381             TOTAL OUT =         666.2595

            IN - OUT =           0.1577              IN - OUT =       5.2734E-02

 PERCENT DISCREPANCY =           0.01     PERCENT DISCREPANCY =           0.01






         TIME SUMMARY AT END OF TIME STEP    3 IN STRESS PERIOD    2
                    SECONDS     MINUTES      HOURS       DAYS        YEARS
                    -----------------------------------------------------------
   TIME STEP LENGTH  86400.      1440.0      24.000      1.0000     2.73785E-03
 STRESS PERIOD TIME 2.59200E+05  4320.0      72.000      3.0000     8.21355E-03
         TOTAL TIME 3.45600E+05  5760.0      96.000      4.0000     1.09514E-02
1
 
 SOLVING FOR HEAD 

 OUTPUT CONTROL FOR STRESS PERIOD    2   TIME STEP    4
    SAVE HEAD FOR ALL LAYERS
    SAVE DRAWDOWN FOR ALL LAYERS
    SAVE BUDGET
    PRINT HEAD FOR ALL LAYERS
    PRINT BUDGET
 UBDSV1 SAVING "         STORAGE" ON UNIT  53 AT TIME STEP  4, STRESS PERIOD   2
 UBDSV2 SAVING "   CONSTANT HEAD" ON UNIT  53 AT TIME STEP  4, STRESS PERIOD   2
 UBDSV1 SAVING "FLOW RIGHT FACE " ON UNIT  53 AT TIME STEP  4, STRESS PERIOD   2
 UBDSV1 SAVING "FLOW FRONT FACE " ON UNIT  53 AT TIME STEP  4, STRESS PERIOD   2
 UBDSV1 SAVING "FLOW LOWER FACE " ON UNIT  53 AT TIME STEP  4, STRESS PERIOD   2
1
              HEAD IN LAYER   1 AT END OF TIME STEP   4 IN STRESS PERIOD    2
  ---------------------------------------------------------------------------

            1           2           3           4           5           6           7           8           9          10
 ........................................................................................................................
   1    9.997       8.887       7.776       6.666       5.555       4.445       3.335       2.224       1.114      3.3313E-03
   2    9.997       8.887       7.776       6.666       5.555       4.445       3.335       2.224       1.114      3.3313E-03
   3    9.997       8.887       7.776       6.666       5.555       4.445       3.335       2.224       1.114      3.3313E-03
   4    9.997       8.887       7.776       6.666       5.555       4.445       3.335       2.224       1.114      3.3313E-03
   5    9.997       8.887       7.776       6.666       5.555       4.445       3.335       2.224       1.114      3.3313E-03
   6    9.997       8.887       7.776       6.666       5.555       4.445       3.335       2.224       1.114      3.3313E-03
   7    9.997       8.887       7.776       6.666       5.555       4.445       3.335       2.224       1.114      3.3313E-03
   8    9.997       8.887       7.776       6.666       5.555       4.445       3.335       2.224       1.114      3.3313E-03
   9    9.997       8.887       7.776       6.666       5.555       4.445       3.335       2.224       1.114      3.3313E-03
  10    9.997       8.887       7.776       6.666       5.555       4.445       3.335       2.224       1.114      3.3313E-03
1
              HEAD IN LAYER   2 AT END OF TIME STEP   4 IN STRESS PERIOD    2
  ---------------------------------------------------------------------------

            1           2           3           4           5           6           7           8           9          10
 ........................................................................................................................
   1    9.997       8.887       7.776       6.666       5.555       4.445       3.335       2.224       1.114      3.3313E-03
   2    9.997       8.887       7.776       6.666       5.555       4.445       3.335       2.224       1.114      3.3313E-03
   3    9.997       8.887       7.776       6.666       5.555       4.445       3.335       2.224       1.114      3.3313E-03
   4    9.997       8.887       7.776       6.666       5.555       4.445       3.335       2.224       1.114      3.3313E-03
   5    9.997       8.887       7.776       6.666       5.555       4.445       3.335       2.224       1.114      3.3313E-03
   6    9.997       8.887       7.776       6.666       5.555       4.445       3.335       2.224       1.114      3.3313E-03
   7    9.997       8.887       7.776       6.666       5.555       4.445       3.335       2.224       1.114      3.3313E-03
   8    9.997       8.887       7.776       6.666       5.555       4.445       3.335       2.224       1.114      3.3313E-03
   9    9.997       8.887       7.776       6.666       5.555       4.445       3.335       2.224       1.114      3.3313E-03
  10    9.997       8.887       7.776       6.666       5.555       4.445       3.335       2.224       1.114      3.3313E-03
1
              HEAD IN LAYER   3 AT END OF TIME STEP   4 IN STRESS PERIOD    2
  ---------------------------------------------------------------------------

            1           2           3           4           5           6           7           8           9          10
 ........................................................................................................................
   1    9.997       8.887       7.776       6.666       5.555       4.445       3.335       2.224       1.114      3.3313E-03
   2    9.997       8.887       7.776       6.666       5.555       4.445       3.335       2.224       1.114      3.3313E-03
   3    9.997       8.887       7.776       6.666       5.555       4.445       3.335       2.224       1.114      3.3313E-03
   4    9.997       8.887       7.776       6.666       5.555       4.445       3.335       2.224       1.114      3.3313E-03
   5    9.997       8.887       7.776       6.666       5.555       4.445       3.335       2.224       1.114      3.3313E-03
   6    9.997       8.887       7.776       6.666       5.555       4.445       3.335       2.224       1.114      3.3313E-03
   7    9.997       8.887       7.776       6.666       5.555       4.445       3.335       2.224       1.114      3.3313E-03
   8    9.997       8.887       7.776       6.666       5.555       4.445       3.335       2.224       1.114      3.3313E-03
   9    9.997       8.887       7.776       6.666       5.555       4.445       3.335       2.224       1.114      3.3313E-03
  10    9.997       8.887       7.776       6.666       5.555       4.445       3.335       2.224       1.114      3.3313E-03
1
              HEAD IN LAYER   4 AT END OF TIME STEP   4 IN STRESS PERIOD    2
  ---------------------------------------------------------------------------

            1           2           3           4           5           6           7           8           9          10
 ........................................................................................................................
   1    9.997       8.887       7.776       6.666       5.555       4.445       3.335       2.224       1.114      3.3313E-03
   2    9.997       8.887       7.776       6.666       5.555       4.445       3.335       2.224       1.114      3.3313E-03
   3    9.997       8.887       7.776       6.666       5.555       4.445       3.335       2.224       1.114      3.3313E-03
   4    9.997       8.887       7.776       6.666       5.555       4.445       3.335       2.224       1.114      3.3313E-03
   5    9.997       8.887       7.776       6.666       5.555       4.445       3.335       2.224       1.114      3.3313E-03
   6    9.997       8.887       7.776       6.666       5.555       4.445       3.335       2.224       1.114      3.3313E-03
   7    9.997       8.887       7.776       6.666       5.555       4.445       3.335       2.224       1.114      3.3313E-03
   8    9.997       8.887       7.776       6.666       5.555       4.445       3.335       2.224       1.114      3.3313E-03
   9    9.997       8.887       7.776       6.666       5.555       4.445       3.335       2.224       1.114      3.3313E-03
  10    9.997       8.887       7.776       6.666       5.555       4.445       3.335       2.224       1.114      3.3313E-03

 HEAD WILL BE SAVED ON UNIT   51 AT END OF TIME STEP    4, STRESS PERIOD    2

 DRAWDOWN WILL BE SAVED ON UNIT   52 AT END OF TIME STEP    4, STRESS PERIOD    2
1
  VOLUMETRIC BUDGET FOR ENTIRE MODEL AT END OF TIME STEP    4, STRESS PERIOD   2
  ------------------------------------------------------------------------------

     CUMULATIVE VOLUMES      L**3       RATES FOR THIS TIME STEP      L**3/T
     ------------------                 ------------------------

           IN:                                      IN:
           ---                                      ---
             STORAGE =       1.0477E-08               STORAGE =           0.0000
       CONSTANT HEAD =           0.0000         CONSTANT HEAD =           0.0000
               WELLS =           0.0000                 WELLS =           0.0000
     HEAD DEP BOUNDS =        3331.5081       HEAD DEP BOUNDS =         666.3123

            TOTAL IN =        3331.5081              TOTAL IN =         666.3123

          OUT:                                     OUT:
          ----                                     ----
             STORAGE =       5.2387E-08               STORAGE =           0.0000
       CONSTANT HEAD =           0.0000         CONSTANT HEAD =           0.0000
               WELLS =           0.0000                 WELLS =           0.0000
     HEAD DEP BOUNDS =        3331.2976       HEAD DEP BOUNDS =         666.2595

           TOTAL OUT =        3331.2976             TOTAL OUT =         666.2595

            IN - OUT =           0.2104              IN - OUT =       5.2795E-02

 PERCENT DISCREPANCY =           0.01     PERCENT DISCREPANCY =           0.01






         TIME SUMMARY AT END OF TIME STEP    4 IN STRESS PERIOD    2
                    SECONDS     MINUTES      HOURS       DAYS        YEARS
                    -----------------------------------------------------------
   TIME STEP LENGTH  86400.      1440.0      24.000      1.0000     2.73785E-03
 STRESS PERIOD TIME 3.45600E+05  5760.0      96.000      4.0000     1.09514E-02
         TOTAL TIME 4.32000E+05  7200.0      120.00      5.0000     1.36893E-02
1
 
 SOLVING FOR HEAD 

 OUTPUT CONTROL FOR STRESS PERIOD    2   TIME STEP    5
    SAVE HEAD FOR ALL LAYERS
    SAVE DRAWDOWN FOR ALL LAYERS
    SAVE BUDGET
    PRINT HEAD FOR ALL LAYERS
    PRINT BUDGET
 UBDSV1 SAVING "         STORAGE" ON UNIT  53 AT TIME STEP  5, STRESS PERIOD   2
 UBDSV2 SAVING "   CONSTANT HEAD" ON UNIT  53 AT TIME STEP  5, STRESS PERIOD   2
 UBDSV1 SAVING "FLOW RIGHT FACE " ON UNIT  53 AT TIME STEP  5, STRESS PERIOD   2
 UBDSV1 SAVING "FLOW FRONT FACE " ON UNIT  53 AT TIME STEP  5, STRESS PERIOD   2
 UBDSV1 SAVING "FLOW LOWER FACE " ON UNIT  53 AT TIME STEP  5, STRESS PERIOD   2
1
              HEAD IN LAYER   1 AT END OF TIME STEP   5 IN STRESS PERIOD    2
  ---------------------------------------------------------------------------

            1           2           3           4           5           6           7           8           9          10
 ........................................................................................................................
   1    9.997       8.887       7.776       6.666       5.555       4.445       3.335       2.224       1.114      3.3313E-03
   2    9.997       8.887       7.776       6.666       5.555       4.445       3.335       2.224       1.114      3.3313E-03
   3    9.997       8.887       7.776       6.666       5.555       4.445       3.335       2.224       1.114      3.3313E-03
   4    9.997       8.887       7.776       6.666       5.555       4.445       3.335       2.224       1.114      3.3313E-03
   5    9.997       8.887       7.776       6.666       5.555       4.445       3.335       2.224       1.114      3.3313E-03
   6    9.997       8.887       7.776       6.666       5.555       4.445       3.335       2.224       1.114      3.3313E-03
   7    9.997       8.887       7.776       6.666       5.555       4.445       3.335       2.224       1.114      3.3313E-03
   8    9.997       8.887       7.776       6.666       5.555       4.445       3.335       2.224       1.114      3.3313E-03
   9    9.997       8.887       7.776       6.666       5.555       4.445       3.335       2.224       1.114      3.3313E-03
  10    9.997       8.887       7.776       6.666       5.555       4.445       3.335       2.224       1.114      3.3313E-03
1
              HEAD IN LAYER   2 AT END OF TIME STEP   5 IN STRESS PERIOD    2
  ---------------------------------------------------------------------------

            1           2           3           4           5           6           7           8           9          10
 ........................................................................................................................
   1    9.997       8.887       7.776       6.666       5.555       4.445       3.335       2.224       1.114      3.3313E-03
   2    9.997       8.887       7.776       6.666       5.555       4.445       3.335       2.224       1.114      3.3313E-03
   3    9.997       8.887       7.776       6.666       5.555       4.445       3.335       2.224       1.114      3.3313E-03
   4    9.997       8.887       7.776       6.666       5.555       4.445       3.335       2.224       1.114      3.3313E-03
   5    9.997       8.887       7.776       6.666       5.555       4.445       3.335       2.224       1.114      3.3313E-03
   6    9.997       8.887       7.776       6.666       5.555       4.445       3.335       2.224       1.114      3.3313E-03
   7    9.997       8.887       7.776       6.666       5.555       4.445       3.335       2.224       1.114      3.3313E-03
   8    9.997       8.887       7.776       6.666       5.555       4.445       3.335       2.224       1.114      3.3313E-03
   9    9.997       8.887       7.776       6.666       5.555       4.445       3.335       2.224       1.114      3.3313E-03
  10    9.997       8.887       7.776       6.666       5.555       4.445       3.335       2.224       1.114      3.3313E-03
1
              HEAD IN LAYER   3 AT END OF TIME STEP   5 IN STRESS PERIOD    2
  ---------------------------------------------------------------------------

            1           2           3           4           5           6           7           8           9          10
 ........................................................................................................................
   1    9.997       8.887       7.776       6.666       5.555       4.445       3.335       2.224       1.114      3.3313E-03
   2    9.997       8.887       7.776       6.666       5.555       4.445       3.335       2.224       1.114      3.3313E-03
   3    9.997       8.887       7.776       6.666       5.555       4.445       3.335       2.224       1.114      3.3313E-03
   4    9.997       8.887       7.776       6.666       5.555       4.445       3.335       2.224       1.114      3.3313E-03
   5    9.997       8.887       7.776       6.666       5.555       4.445       3.335       2.224       1.114      3.3313E-03
   6    9.997       8.887       7.776       6.666       5.555       4.445       3.335       2.224       1.114      3.3313E-03
   7    9.997       8.887       7.776       6.666       5.555       4.445       3.335       2.224       1.114      3.3313E-03
   8    9.997       8.887       7.776       6.666       5.555       4.445       3.335       2.224       1.114      3.3313E-03
   9    9.997       8.887       7.776       6.666       5.555       4.445       3.335       2.224       1.114      3.3313E-03
  10    9.997       8.887       7.776       6.666       5.555       4.445       3.335       2.224       1.114      3.3313E-03
1
              HEAD IN LAYER   4 AT END OF TIME STEP   5 IN STRESS PERIOD    2
  ---------------------------------------------------------------------------

            1           2           3           4           5           6           7           8           9          10
 ........................................................................................................................
   1    9.997       8.887       7.776       6.666       5.555       4.445       3.335       2.224       1.114      3.3313E-03
   2    9.997       8.887       7.776       6.666       5.555       4.445       3.335       2.224       1.114      3.3313E-03
   3    9.997       8.887       7.776       6.666       5.555       4.445       3.335       2.224       1.114      3.3313E-03
   4    9.997       8.887       7.776       6.666       5.555       4.445       3.335       2.224       1.114      3.3313E-03
   5    9.997       8.887       7.776       6.666       5.555       4.445       3.335       2.224       1.114      3.3313E-03
   6    9.997       8.887       7.776       6.666       5.555       4.445       3.335       2.224       1.114      3.3313E-03
   7    9.997       8.887       7.776       6.666       5.555       4.445       3.335       2.224       1.114      3.3313E-03
   8    9.997       8.887       7.776       6.666       5.555       4.445       3.335       2.224       1.114      3.3313E-03
   9    9.997       8.887       7.776       6.666       5.555       4.445       3.335       2.224       1.114      3.3313E-03
  10    9.997       8.887       7.776       6.666       5.555       4.445       3.335       2.224       1.114      3.3313E-03

 HEAD WILL BE SAVED ON UNIT   51 AT END OF TIME STEP    5, STRESS PERIOD    2

 DRAWDOWN WILL BE SAVED ON UNIT   52 AT END OF TIME STEP    5, STRESS PERIOD    2
1
  VOLUMETRIC BUDGET FOR ENTIRE MODEL AT END OF TIME STEP    5, STRESS PERIOD   2
  ------------------------------------------------------------------------------

     CUMULATIVE VOLUMES      L**3       RATES FOR THIS TIME STEP      L**3/T
     ------------------                 ------------------------

           IN:                                      IN:
           ---                                      ---
             STORAGE =       1.0477E-08               STORAGE =           0.0000
       CONSTANT HEAD =           0.0000         CONSTANT HEAD =           0.0000
               WELLS =           0.0000                 WELLS =           0.0000
     HEAD DEP BOUNDS =        3997.8203       HEAD DEP BOUNDS =         666.3123

            TOTAL IN =        3997.8203              TOTAL IN =         666.3123

          OUT:                                     OUT:
          ----                                     ----
             STORAGE =       5.2387E-08               STORAGE =           0.0000
       CONSTANT HEAD =           0.0000         CONSTANT HEAD =           0.0000
               WELLS =           0.0000                 WELLS =           0.0000
     HEAD DEP BOUNDS =        3997.5571       HEAD DEP BOUNDS =         666.2595

           TOTAL OUT =        3997.5571             TOTAL OUT =         666.2595

            IN - OUT =           0.2632              IN - OUT =       5.2795E-02

 PERCENT DISCREPANCY =           0.01     PERCENT DISCREPANCY =           0.01






         TIME SUMMARY AT END OF TIME STEP    5 IN STRESS PERIOD    2
                    SECONDS     MINUTES      HOURS       DAYS        YEARS
                    -----------------------------------------------------------
   TIME STEP LENGTH  86400.      1440.0      24.000      1.0000     2.73785E-03
 STRESS PERIOD TIME 4.32000E+05  7200.0      120.00      5.0000     1.36893E-02
         TOTAL TIME 5.18400E+05  8640.0      144.00      6.0000     1.64271E-02
1
 
 SOLVING FOR HEAD 

 OUTPUT CONTROL FOR STRESS PERIOD    2   TIME STEP    6
    SAVE HEAD FOR ALL LAYERS
    SAVE DRAWDOWN FOR ALL LAYERS
    SAVE BUDGET
    PRINT HEAD FOR ALL LAYERS
    PRINT BUDGET
 UBDSV1 SAVING "         STORAGE" ON UNIT  53 AT TIME STEP  6, STRESS PERIOD   2
 UBDSV2 SAVING "   CONSTANT HEAD" ON UNIT  53 AT TIME STEP  6, STRESS PERIOD   2
 UBDSV1 SAVING "FLOW RIGHT FACE " ON UNIT  53 AT TIME STEP  6, STRESS PERIOD   2
 UBDSV1 SAVING "FLOW FRONT FACE " ON UNIT  53 AT TIME STEP  6, STRESS PERIOD   2
 UBDSV1 SAVING "FLOW LOWER FACE " ON UNIT  53 AT TIME STEP  6, STRESS PERIOD   2
1
              HEAD IN LAYER   1 AT END OF TIME STEP   6 IN STRESS PERIOD    2
  ---------------------------------------------------------------------------

            1           2           3           4           5           6           7           8           9          10
 ........................................................................................................................
   1    9.997       8.887       7.776       6.666       5.555       4.445       3.335       2.224       1.114      3.3313E-03
   2    9.997       8.887       7.776       6.666       5.555       4.445       3.335       2.224       1.114      3.3313E-03
   3    9.997       8.887       7.776       6.666       5.555       4.445       3.335       2.224       1.114      3.3313E-03
   4    9.997       8.887       7.776       6.666       5.555       4.445       3.335       2.224       1.114      3.3313E-03
   5    9.997       8.887       7.776       6.666       5.555       4.445       3.335       2.224       1.114      3.3313E-03
   6    9.997       8.887       7.776       6.666       5.555       4.445       3.335       2.224       1.114      3.3313E-03
   7    9.997       8.887       7.776       6.666       5.555       4.445       3.335       2.224       1.114      3.3313E-03
   8    9.997       8.887       7.776       6.666       5.555       4.445       3.335       2.224       1.114      3.3313E-03
   9    9.997       8.887       7.776       6.666       5.555       4.445       3.335       2.224       1.114      3.3313E-03
  10    9.997       8.887       7.776       6.666       5.555       4.445       3.335       2.224       1.114      3.3313E-03
1
              HEAD IN LAYER   2 AT END OF TIME STEP   6 IN STRESS PERIOD    2
  ---------------------------------------------------------------------------

            1           2           3           4           5           6           7           8           9          10
 ........................................................................................................................
   1    9.997       8.887       7.776       6.666       5.555       4.445       3.335       2.224       1.114      3.3313E-03
   2    9.997       8.887       7.776       6.666       5.555       4.445       3.335       2.224       1.114      3.3313E-03
   3    9.997       8.887       7.776       6.666       5.555       4.445       3.335       2.224       1.114      3.3313E-03
   4    9.997       8.887       7.776       6.666       5.555       4.445       3.335       2.224       1.114      3.3313E-03
   5    9.997       8.887       7.776       6.666       5.555       4.445       3.335       2.224       1.114      3.3313E-03
   6    9.997       8.887       7.776       6.666       5.555       4.445       3.335       2.224       1.114      3.3313E-03
   7    9.997       8.887       7.776       6.666       5.555       4.445       3.335       2.224       1.114      3.3313E-03
   8    9.997       8.887       7.776       6.666       5.555       4.445       3.335       2.224       1.114      3.3313E-03
   9    9.997       8.887       7.776       6.666       5.555       4.445       3.335       2.224       1.114      3.3313E-03
  10    9.997       8.887       7.776       6.666       5.555       4.445       3.335       2.224       1.114      3.3313E-03
1
              HEAD IN LAYER   3 AT END OF TIME STEP   6 IN STRESS PERIOD    2
  ---------------------------------------------------------------------------

            1           2           3           4           5           6           7           8           9          10
 ........................................................................................................................
   1    9.997       8.887       7.776       6.666       5.555       4.445       3.335       2.224       1.114      3.3313E-03
   2    9.997       8.887       7.776       6.666       5.555       4.445       3.335       2.224       1.114      3.3313E-03
   3    9.997       8.887       7.776       6.666       5.555       4.445       3.335       2.224       1.114      3.3313E-03
   4    9.997       8.887       7.776       6.666       5.555       4.445       3.335       2.224       1.114      3.3313E-03
   5    9.997       8.887       7.776       6.666       5.555       4.445       3.335       2.224       1.114      3.3313E-03
   6    9.997       8.887       7.776       6.666       5.555       4.445       3.335       2.224       1.114      3.3313E-03
   7    9.997       8.887       7.776       6.666       5.555       4.445       3.335       2.224       1.114      3.3313E-03
   8    9.997       8.887       7.776       6.666       5.555       4.445       3.335       2.224       1.114      3.3313E-03
   9    9.997       8.887       7.776       6.666       5.555       4.445       3.335       2.224       1.114      3.3313E-03
  10    9.997       8.887       7.776       6.666       5.555       4.445       3.335       2.224       1.114      3.3313E-03
1
              HEAD IN LAYER   4 AT END OF TIME STEP   6 IN STRESS PERIOD    2
  ---------------------------------------------------------------------------

            1           2           3           4           5           6           7           8           9          10
 ........................................................................................................................
   1    9.997       8.887       7.776       6.666       5.555       4.445       3.335       2.224       1.114      3.3313E-03
   2    9.997       8.887       7.776       6.666       5.555       4.445       3.335       2.224       1.114      3.3313E-03
   3    9.997       8.887       7.776       6.666       5.555       4.445       3.335       2.224       1.114      3.3313E-03
   4    9.997       8.887       7.776       6.666       5.555       4.445       3.335       2.224       1.114      3.3313E-03
   5    9.997       8.887       7.776       6.666       5.555       4.445       3.335       2.224       1.114      3.3313E-03
   6    9.997       8.887       7.776       6.666       5.555       4.445       3.335       2.224       1.114      3.3313E-03
   7    9.997       8.887       7.776       6.666       5.555       4.445       3.335       2.224       1.114      3.3313E-03
   8    9.997       8.887       7.776       6.666       5.555       4.445       3.335       2.224       1.114      3.3313E-03
   9    9.997       8.887       7.776       6.666       5.555       4.445       3.335       2.224       1.114      3.3313E-03
  10    9.997       8.887       7.776       6.666       5.555       4.445       3.335       2.224       1.114      3.3313E-03

 HEAD WILL BE SAVED ON UNIT   51 AT END OF TIME STEP    6, STRESS PERIOD    2

 DRAWDOWN WILL BE SAVED ON UNIT   52 AT END OF TIME STEP    6, STRESS PERIOD    2
1
  VOLUMETRIC BUDGET FOR ENTIRE MODEL AT END OF TIME STEP    6, STRESS PERIOD   2
  ------------------------------------------------------------------------------

     CUMULATIVE VOLUMES      L**3       RATES FOR THIS TIME STEP      L**3/T
     ------------------                 ------------------------

           IN:                                      IN:
           ---                                      ---
             STORAGE =       1.0477E-08               STORAGE =           0.0000
       CONSTANT HEAD =           0.0000         CONSTANT HEAD =           0.0000
               WELLS =           0.0000                 WELLS =           0.0000
     HEAD DEP BOUNDS =        4664.1328       HEAD DEP BOUNDS =         666.3123

            TOTAL IN =        4664.1328              TOTAL IN =         666.3123

          OUT:                                     OUT:
          ----                                     ----
             STORAGE =       5.2387E-08               STORAGE =           0.0000
       CONSTANT HEAD =           0.0000         CONSTANT HEAD =           0.0000
               WELLS =           0.0000                 WELLS =           0.0000
     HEAD DEP BOUNDS =        4663.8164       HEAD DEP BOUNDS =         666.2595

           TOTAL OUT =        4663.8164             TOTAL OUT =         666.2595

            IN - OUT =           0.3164              IN - OUT =       5.2795E-02

 PERCENT DISCREPANCY =           0.01     PERCENT DISCREPANCY =           0.01






         TIME SUMMARY AT END OF TIME STEP    6 IN STRESS PERIOD    2
                    SECONDS     MINUTES      HOURS       DAYS        YEARS
                    -----------------------------------------------------------
   TIME STEP LENGTH  86400.      1440.0      24.000      1.0000     2.73785E-03
 STRESS PERIOD TIME 5.18400E+05  8640.0      144.00      6.0000     1.64271E-02
         TOTAL TIME 6.04800E+05  10080.      168.00      7.0000     1.91650E-02
1
 
 SOLVING FOR HEAD 

 OUTPUT CONTROL FOR STRESS PERIOD    2   TIME STEP    7
    SAVE HEAD FOR ALL LAYERS
    SAVE DRAWDOWN FOR ALL LAYERS
    SAVE BUDGET
    PRINT HEAD FOR ALL LAYERS
    PRINT BUDGET
 UBDSV1 SAVING "         STORAGE" ON UNIT  53 AT TIME STEP  7, STRESS PERIOD   2
 UBDSV2 SAVING "   CONSTANT HEAD" ON UNIT  53 AT TIME STEP  7, STRESS PERIOD   2
 UBDSV1 SAVING "FLOW RIGHT FACE " ON UNIT  53 AT TIME STEP  7, STRESS PERIOD   2
 UBDSV1 SAVING "FLOW FRONT FACE " ON UNIT  53 AT TIME STEP  7, STRESS PERIOD   2
 UBDSV1 SAVING "FLOW LOWER FACE " ON UNIT  53 AT TIME STEP  7, STRESS PERIOD   2
1
              HEAD IN LAYER   1 AT END OF TIME STEP   7 IN STRESS PERIOD    2
  ---------------------------------------------------------------------------

            1           2           3           4           5           6           7           8           9          10
 ........................................................................................................................
   1    9.997       8.887       7.776       6.666       5.555       4.445       3.335       2.224       1.114      3.3313E-03
   2    9.997       8.887       7.776       6.666       5.555       4.445       3.335       2.224       1.114      3.3313E-03
   3    9.997       8.887       7.776       6.666       5.555       4.445       3.335       2.224       1.114      3.3313E-03
   4    9.997       8.887       7.776       6.666       5.555       4.445       3.335       2.224       1.114      3.3313E-03
   5    9.997       8.887       7.776       6.666       5.555       4.445       3.335       2.224       1.114      3.3313E-03
   6    9.997       8.887       7.776       6.666       5.555       4.445       3.335       2.224       1.114      3.3313E-03
   7    9.997       8.887       7.776       6.666       5.555       4.445       3.335       2.224       1.114      3.3313E-03
   8    9.997       8.887       7.776       6.666       5.555       4.445       3.335       2.224       1.114      3.3313E-03
   9    9.997       8.887       7.776       6.666       5.555       4.445       3.335       2.224       1.114      3.3313E-03
  10    9.997       8.887       7.776       6.666       5.555       4.445       3.335       2.224       1.114      3.3313E-03
1
              HEAD IN LAYER   2 AT END OF TIME STEP   7 IN STRESS PERIOD    2
  ---------------------------------------------------------------------------

            1           2           3           4           5           6           7           8           9          10
 ........................................................................................................................
   1    9.997       8.887       7.776       6.666       5.555       4.445       3.335       2.224       1.114      3.3313E-03
   2    9.997       8.887       7.776       6.666       5.555       4.445       3.335       2.224       1.114      3.3313E-03
   3    9.997       8.887       7.776       6.666       5.555       4.445       3.335       2.224       1.114      3.3313E-03
   4    9.997       8.887       7.776       6.666       5.555       4.445       3.335       2.224       1.114      3.3313E-03
   5    9.997       8.887       7.776       6.666       5.555       4.445       3.335       2.224       1.114      3.3313E-03
   6    9.997       8.887       7.776       6.666       5.555       4.445       3.335       2.224       1.114      3.3313E-03
   7    9.997       8.887       7.776       6.666       5.555       4.445       3.335       2.224       1.114      3.3313E-03
   8    9.997       8.887       7.776       6.666       5.555       4.445       3.335       2.224       1.114      3.3313E-03
   9    9.997       8.887       7.776       6.666       5.555       4.445       3.335       2.224       1.114      3.3313E-03
  10    9.997       8.887       7.776       6.666       5.555       4.445       3.335       2.224       1.114      3.3313E-03
1
              HEAD IN LAYER   3 AT END OF TIME STEP   7 IN STRESS PERIOD    2
  ---------------------------------------------------------------------------

            1           2           3           4           5           6           7           8           9          10
 ........................................................................................................................
   1    9.997       8.887       7.776       6.666       5.555       4.445       3.335       2.224       1.114      3.3313E-03
   2    9.997       8.887       7.776       6.666       5.555       4.445       3.335       2.224       1.114      3.3313E-03
   3    9.997       8.887       7.776       6.666       5.555       4.445       3.335       2.224       1.114      3.3313E-03
   4    9.997       8.887       7.776       6.666       5.555       4.445       3.335       2.224       1.114      3.3313E-03
   5    9.997       8.887       7.776       6.666       5.555       4.445       3.335       2.224       1.114      3.3313E-03
   6    9.997       8.887       7.776       6.666       5.555       4.445       3.335       2.224       1.114      3.3313E-03
   7    9.997       8.887       7.776       6.666       5.555       4.445       3.335       2.224       1.114      3.3313E-03
   8    9.997       8.887       7.776       6.666       5.555       4.445       3.335       2.224       1.114      3.3313E-03
   9    9.997       8.887       7.776       6.666       5.555       4.445       3.335       2.224       1.114      3.3313E-03
  10    9.997       8.887       7.776       6.666       5.555       4.445       3.335       2.224       1.114      3.3313E-03
1
              HEAD IN LAYER   4 AT END OF TIME STEP   7 IN STRESS PERIOD    2
  ---------------------------------------------------------------------------

            1           2           3           4           5           6           7           8           9          10
 ........................................................................................................................
   1    9.997       8.887       7.776       6.666       5.555       4.445       3.335       2.224       1.114      3.3313E-03
   2    9.997       8.887       7.776       6.666       5.555       4.445       3.335       2.224       1.114      3.3313E-03
   3    9.997       8.887       7.776       6.666       5.555       4.445       3.335       2.224       1.114      3.3313E-03
   4    9.997       8.887       7.776       6.666       5.555       4.445       3.335       2.224       1.114      3.3313E-03
   5    9.997       8.887       7.776       6.666       5.555       4.445       3.335       2.224       1.114      3.3313E-03
   6    9.997       8.887       7.776       6.666       5.555       4.445       3.335       2.224       1.114      3.3313E-03
   7    9.997       8.887       7.776       6.666       5.555       4.445       3.335       2.224       1.114      3.3313E-03
   8    9.997       8.887       7.776       6.666       5.555       4.445       3.335       2.224       1.114      3.3313E-03
   9    9.997       8.887       7.776       6.666       5.555       4.445       3.335       2.224       1.114      3.3313E-03
  10    9.997       8.887       7.776       6.666       5.555       4.445       3.335       2.224       1.114      3.3313E-03

 HEAD WILL BE SAVED ON UNIT   51 AT END OF TIME STEP    7, STRESS PERIOD    2

 DRAWDOWN WILL BE SAVED ON UNIT   52 AT END OF TIME STEP    7, STRESS PERIOD    2
1
  VOLUMETRIC BUDGET FOR ENTIRE MODEL AT END OF TIME STEP    7, STRESS PERIOD   2
  ------------------------------------------------------------------------------

     CUMULATIVE VOLUMES      L**3       RATES FOR THIS TIME STEP      L**3/T
     ------------------                 ------------------------

           IN:                                      IN:
           ---                                      ---
             STORAGE =       1.0477E-08               STORAGE =           0.0000
       CONSTANT HEAD =           0.0000         CONSTANT HEAD =           0.0000
               WELLS =           0.0000                 WELLS =           0.0000
     HEAD DEP BOUNDS =        5330.4453       HEAD DEP BOUNDS =         666.3123

            TOTAL IN =        5330.4453              TOTAL IN =         666.3123

          OUT:                                     OUT:
          ----                                     ----
             STORAGE =       5.2387E-08               STORAGE =           0.0000
       CONSTANT HEAD =           0.0000         CONSTANT HEAD =           0.0000
               WELLS =           0.0000                 WELLS =           0.0000
     HEAD DEP BOUNDS =        5330.0762       HEAD DEP BOUNDS =         666.2595

           TOTAL OUT =        5330.0762             TOTAL OUT =         666.2595

            IN - OUT =           0.3691              IN - OUT =       5.2795E-02

 PERCENT DISCREPANCY =           0.01     PERCENT DISCREPANCY =           0.01






         TIME SUMMARY AT END OF TIME STEP    7 IN STRESS PERIOD    2
                    SECONDS     MINUTES      HOURS       DAYS        YEARS
                    -----------------------------------------------------------
   TIME STEP LENGTH  86400.      1440.0      24.000      1.0000     2.73785E-03
 STRESS PERIOD TIME 6.04800E+05  10080.      168.00      7.0000     1.91650E-02
         TOTAL TIME 6.91200E+05  11520.      192.00      8.0000     2.19028E-02
1
 
 SOLVING FOR HEAD 

 OUTPUT CONTROL FOR STRESS PERIOD    2   TIME STEP    8
    SAVE HEAD FOR ALL LAYERS
    SAVE DRAWDOWN FOR ALL LAYERS
    SAVE BUDGET
    PRINT HEAD FOR ALL LAYERS
    PRINT BUDGET
 UBDSV1 SAVING "         STORAGE" ON UNIT  53 AT TIME STEP  8, STRESS PERIOD   2
 UBDSV2 SAVING "   CONSTANT HEAD" ON UNIT  53 AT TIME STEP  8, STRESS PERIOD   2
 UBDSV1 SAVING "FLOW RIGHT FACE " ON UNIT  53 AT TIME STEP  8, STRESS PERIOD   2
 UBDSV1 SAVING "FLOW FRONT FACE " ON UNIT  53 AT TIME STEP  8, STRESS PERIOD   2
 UBDSV1 SAVING "FLOW LOWER FACE " ON UNIT  53 AT TIME STEP  8, STRESS PERIOD   2
1
              HEAD IN LAYER   1 AT END OF TIME STEP   8 IN STRESS PERIOD    2
  ---------------------------------------------------------------------------

            1           2           3           4           5           6           7           8           9          10
 ........................................................................................................................
   1    9.997       8.887       7.776       6.666       5.555       4.445       3.335       2.224       1.114      3.3313E-03
   2    9.997       8.887       7.776       6.666       5.555       4.445       3.335       2.224       1.114      3.3313E-03
   3    9.997       8.887       7.776       6.666       5.555       4.445       3.335       2.224       1.114      3.3313E-03
   4    9.997       8.887       7.776       6.666       5.555       4.445       3.335       2.224       1.114      3.3313E-03
   5    9.997       8.887       7.776       6.666       5.555       4.445       3.335       2.224       1.114      3.3313E-03
   6    9.997       8.887       7.776       6.666       5.555       4.445       3.335       2.224       1.114      3.3313E-03
   7    9.997       8.887       7.776       6.666       5.555       4.445       3.335       2.224       1.114      3.3313E-03
   8    9.997       8.887       7.776       6.666       5.555       4.445       3.335       2.224       1.114      3.3313E-03
   9    9.997       8.887       7.776       6.666       5.555       4.445       3.335       2.224       1.114      3.3313E-03
  10    9.997       8.887       7.776       6.666       5.555       4.445       3.335       2.224       1.114      3.3313E-03
1
              HEAD IN LAYER   2 AT END OF TIME STEP   8 IN STRESS PERIOD    2
  ---------------------------------------------------------------------------

            1           2           3           4           5           6           7           8           9          10
 ........................................................................................................................
   1    9.997       8.887       7.776       6.666       5.555       4.445       3.335       2.224       1.114      3.3313E-03
   2    9.997       8.887       7.776       6.666       5.555       4.445       3.335       2.224       1.114      3.3313E-03
   3    9.997       8.887       7.776       6.666       5.555       4.445       3.335       2.224       1.114      3.3313E-03
   4    9.997       8.887       7.776       6.666       5.555       4.445       3.335       2.224       1.114      3.3313E-03
   5    9.997       8.887       7.776       6.666       5.555       4.445       3.335       2.224       1.114      3.3313E-03
   6    9.997       8.887       7.776       6.666       5.555       4.445       3.335       2.224       1.114      3.3313E-03
   7    9.997       8.887       7.776       6.666       5.555       4.445       3.335       2.224       1.114      3.3313E-03
   8    9.997       8.887       7.776       6.666       5.555       4.445       3.335       2.224       1.114      3.3313E-03
   9    9.997       8.887       7.776       6.666       5.555       4.445       3.335       2.224       1.114      3.3313E-03
  10    9.997       8.887       7.776       6.666       5.555       4.445       3.335       2.224       1.114      3.3313E-03
1
              HEAD IN LAYER   3 AT END OF TIME STEP   8 IN STRESS PERIOD    2
  ---------------------------------------------------------------------------

            1           2           3           4           5           6           7           8           9          10
 ........................................................................................................................
   1    9.997       8.887       7.776       6.666       5.555       4.445       3.335       2.224       1.114      3.3313E-03
   2    9.997       8.887       7.776       6.666       5.555       4.445       3.335       2.224       1.114      3.3313E-03
   3    9.997       8.887       7.776       6.666       5.555       4.445       3.335       2.224       1.114      3.3313E-03
   4    9.997       8.887       7.776       6.666       5.555       4.445       3.335       2.224       1.114      3.3313E-03
   5    9.997       8.887       7.776       6.666       5.555       4.445       3.335       2.224       1.114      3.3313E-03
   6    9.997       8.887       7.776       6.666       5.555       4.445       3.335       2.224       1.114      3.3313E-03
   7    9.997       8.887       7.776       6.666       5.555       4.445       3.335       2.224       1.114      3.3313E-03
   8    9.997       8.887       7.776       6.666       5.555       4.445       3.335       2.224       1.114      3.3313E-03
   9    9.997       8.887       7.776       6.666       5.555       4.445       3.335       2.224       1.114      3.3313E-03
  10    9.997       8.887       7.776       6.666       5.555       4.445       3.335       2.224       1.114      3.3313E-03
1
              HEAD IN LAYER   4 AT END OF TIME STEP   8 IN STRESS PERIOD    2
  ---------------------------------------------------------------------------

            1           2           3           4           5           6           7           8           9          10
 ........................................................................................................................
   1    9.997       8.887       7.776       6.666       5.555       4.445       3.335       2.224       1.114      3.3313E-03
   2    9.997       8.887       7.776       6.666       5.555       4.445       3.335       2.224       1.114      3.3313E-03
   3    9.997       8.887       7.776       6.666       5.555       4.445       3.335       2.224       1.114      3.3313E-03
   4    9.997       8.887       7.776       6.666       5.555       4.445       3.335       2.224       1.114      3.3313E-03
   5    9.997       8.887       7.776       6.666       5.555       4.445       3.335       2.224       1.114      3.3313E-03
   6    9.997       8.887       7.776       6.666       5.555       4.445       3.335       2.224       1.114      3.3313E-03
   7    9.997       8.887       7.776       6.666       5.555       4.445       3.335       2.224       1.114      3.3313E-03
   8    9.997       8.887       7.776       6.666       5.555       4.445       3.335       2.224       1.114      3.3313E-03
   9    9.997       8.887       7.776       6.666       5.555       4.445       3.335       2.224       1.114      3.3313E-03
  10    9.997       8.887       7.776       6.666       5.555       4.445       3.335       2.224       1.114      3.3313E-03

 HEAD WILL BE SAVED ON UNIT   51 AT END OF TIME STEP    8, STRESS PERIOD    2

 DRAWDOWN WILL BE SAVED ON UNIT   52 AT END OF TIME STEP    8, STRESS PERIOD    2
1
  VOLUMETRIC BUDGET FOR ENTIRE MODEL AT END OF TIME STEP    8, STRESS PERIOD   2
  ------------------------------------------------------------------------------

     CUMULATIVE VOLUMES      L**3       RATES FOR THIS TIME STEP      L**3/T
     ------------------                 ------------------------

           IN:                                      IN:
           ---                                      ---
             STORAGE =       1.0477E-08               STORAGE =           0.0000
       CONSTANT HEAD =           0.0000         CONSTANT HEAD =           0.0000
               WELLS =           0.0000                 WELLS =           0.0000
     HEAD DEP BOUNDS =        5996.7578       HEAD DEP BOUNDS =         666.3123

            TOTAL IN =        5996.7578              TOTAL IN =         666.3123

          OUT:                                     OUT:
          ----                                     ----
             STORAGE =       5.2387E-08               STORAGE =           0.0000
       CONSTANT HEAD =           0.0000         CONSTANT HEAD =           0.0000
               WELLS =           0.0000                 WELLS =           0.0000
     HEAD DEP BOUNDS =        5996.3359       HEAD DEP BOUNDS =         666.2595

           TOTAL OUT =        5996.3359             TOTAL OUT =         666.2595

            IN - OUT =           0.4219              IN - OUT =       5.2795E-02

 PERCENT DISCREPANCY =           0.01     PERCENT DISCREPANCY =           0.01






         TIME SUMMARY AT END OF TIME STEP    8 IN STRESS PERIOD    2
                    SECONDS     MINUTES      HOURS       DAYS        YEARS
                    -----------------------------------------------------------
   TIME STEP LENGTH  86400.      1440.0      24.000      1.0000     2.73785E-03
 STRESS PERIOD TIME 6.91200E+05  11520.      192.00      8.0000     2.19028E-02
         TOTAL TIME 7.77600E+05  12960.      216.00      9.0000     2.46407E-02
1
 
 SOLVING FOR HEAD 

 OUTPUT CONTROL FOR STRESS PERIOD    2   TIME STEP    9
    SAVE HEAD FOR ALL LAYERS
    SAVE DRAWDOWN FOR ALL LAYERS
    SAVE BUDGET
    PRINT HEAD FOR ALL LAYERS
    PRINT BUDGET
 UBDSV1 SAVING "         STORAGE" ON UNIT  53 AT TIME STEP  9, STRESS PERIOD   2
 UBDSV2 SAVING "   CONSTANT HEAD" ON UNIT  53 AT TIME STEP  9, STRESS PERIOD   2
 UBDSV1 SAVING "FLOW RIGHT FACE " ON UNIT  53 AT TIME STEP  9, STRESS PERIOD   2
 UBDSV1 SAVING "FLOW FRONT FACE " ON UNIT  53 AT TIME STEP  9, STRESS PERIOD   2
 UBDSV1 SAVING "FLOW LOWER FACE " ON UNIT  53 AT TIME STEP  9, STRESS PERIOD   2
1
              HEAD IN LAYER   1 AT END OF TIME STEP   9 IN STRESS PERIOD    2
  ---------------------------------------------------------------------------

            1           2           3           4           5           6           7           8           9          10
 ........................................................................................................................
   1    9.997       8.887       7.776       6.666       5.555       4.445       3.335       2.224       1.114      3.3313E-03
   2    9.997       8.887       7.776       6.666       5.555       4.445       3.335       2.224       1.114      3.3313E-03
   3    9.997       8.887       7.776       6.666       5.555       4.445       3.335       2.224       1.114      3.3313E-03
   4    9.997       8.887       7.776       6.666       5.555       4.445       3.335       2.224       1.114      3.3313E-03
   5    9.997       8.887       7.776       6.666       5.555       4.445       3.335       2.224       1.114      3.3313E-03
   6    9.997       8.887       7.776       6.666       5.555       4.445       3.335       2.224       1.114      3.3313E-03
   7    9.997       8.887       7.776       6.666       5.555       4.445       3.335       2.224       1.114      3.3313E-03
   8    9.997       8.887       7.776       6.666       5.555       4.445       3.335       2.224       1.114      3.3313E-03
   9    9.997       8.887       7.776       6.666       5.555       4.445       3.335       2.224       1.114      3.3313E-03
  10    9.997       8.887       7.776       6.666       5.555       4.445       3.335       2.224       1.114      3.3313E-03
1
              HEAD IN LAYER   2 AT END OF TIME STEP   9 IN STRESS PERIOD    2
  ---------------------------------------------------------------------------

            1           2           3           4           5           6           7           8           9          10
 ........................................................................................................................
   1    9.997       8.887       7.776       6.666       5.555       4.445       3.335       2.224       1.114      3.3313E-03
   2    9.997       8.887       7.776       6.666       5.555       4.445       3.335       2.224       1.114      3.3313E-03
   3    9.997       8.887       7.776       6.666       5.555       4.445       3.335       2.224       1.114      3.3313E-03
   4    9.997       8.887       7.776       6.666       5.555       4.445       3.335       2.224       1.114      3.3313E-03
   5    9.997       8.887       7.776       6.666       5.555       4.445       3.335       2.224       1.114      3.3313E-03
   6    9.997       8.887       7.776       6.666       5.555       4.445       3.335       2.224       1.114      3.3313E-03
   7    9.997       8.887       7.776       6.666       5.555       4.445       3.335       2.224       1.114      3.3313E-03
   8    9.997       8.887       7.776       6.666       5.555       4.445       3.335       2.224       1.114      3.3313E-03
   9    9.997       8.887       7.776       6.666       5.555       4.445       3.335       2.224       1.114      3.3313E-03
  10    9.997       8.887       7.776       6.666       5.555       4.445       3.335       2.224       1.114      3.3313E-03
1
              HEAD IN LAYER   3 AT END OF TIME STEP   9 IN STRESS PERIOD    2
  ---------------------------------------------------------------------------

            1           2           3           4           5           6           7           8           9          10
 ........................................................................................................................
   1    9.997       8.887       7.776       6.666       5.555       4.445       3.335       2.224       1.114      3.3313E-03
   2    9.997       8.887       7.776       6.666       5.555       4.445       3.335       2.224       1.114      3.3313E-03
   3    9.997       8.887       7.776       6.666       5.555       4.445       3.335       2.224       1.114      3.3313E-03
   4    9.997       8.887       7.776       6.666       5.555       4.445       3.335       2.224       1.114      3.3313E-03
   5    9.997       8.887       7.776       6.666       5.555       4.445       3.335       2.224       1.114      3.3313E-03
   6    9.997       8.887       7.776       6.666       5.555       4.445       3.335       2.224       1.114      3.3313E-03
   7    9.997       8.887       7.776       6.666       5.555       4.445       3.335       2.224       1.114      3.3313E-03
   8    9.997       8.887       7.776       6.666       5.555       4.445       3.335       2.224       1.114      3.3313E-03
   9    9.997       8.887       7.776       6.666       5.555       4.445       3.335       2.224       1.114      3.3313E-03
  10    9.997       8.887       7.776       6.666       5.555       4.445       3.335       2.224       1.114      3.3313E-03
1
              HEAD IN LAYER   4 AT END OF TIME STEP   9 IN STRESS PERIOD    2
  ---------------------------------------------------------------------------

            1           2           3           4           5           6           7           8           9          10
 ........................................................................................................................
   1    9.997       8.887       7.776       6.666       5.555       4.445       3.335       2.224       1.114      3.3313E-03
   2    9.997       8.887       7.776       6.666       5.555       4.445       3.335       2.224       1.114      3.3313E-03
   3    9.997       8.887       7.776       6.666       5.555       4.445       3.335       2.224       1.114      3.3313E-03
   4    9.997       8.887       7.776       6.666       5.555       4.445       3.335       2.224       1.114      3.3313E-03
   5    9.997       8.887       7.776       6.666       5.555       4.445       3.335       2.224       1.114      3.3313E-03
   6    9.997       8.887       7.776       6.666       5.555       4.445       3.335       2.224       1.114      3.3313E-03
   7    9.997       8.887       7.776       6.666       5.555       4.445       3.335       2.224       1.114      3.3313E-03
   8    9.997       8.887       7.776       6.666       5.555       4.445       3.335       2.224       1.114      3.3313E-03
   9    9.997       8.887       7.776       6.666       5.555       4.445       3.335       2.224       1.114      3.3313E-03
  10    9.997       8.887       7.776       6.666       5.555       4.445       3.335       2.224       1.114      3.3313E-03

 HEAD WILL BE SAVED ON UNIT   51 AT END OF TIME STEP    9, STRESS PERIOD    2

 DRAWDOWN WILL BE SAVED ON UNIT   52 AT END OF TIME STEP    9, STRESS PERIOD    2
1
  VOLUMETRIC BUDGET FOR ENTIRE MODEL AT END OF TIME STEP    9, STRESS PERIOD   2
  ------------------------------------------------------------------------------

     CUMULATIVE VOLUMES      L**3       RATES FOR THIS TIME STEP      L**3/T
     ------------------                 ------------------------

           IN:                                      IN:
           ---                                      ---
             STORAGE =       1.0477E-08               STORAGE =           0.0000
       CONSTANT HEAD =           0.0000         CONSTANT HEAD =           0.0000
               WELLS =           0.0000                 WELLS =           0.0000
     HEAD DEP BOUNDS =        6663.0703       HEAD DEP BOUNDS =         666.3123

            TOTAL IN =        6663.0703              TOTAL IN =         666.3123

          OUT:                                     OUT:
          ----                                     ----
             STORAGE =       5.2387E-08               STORAGE =           0.0000
       CONSTANT HEAD =           0.0000         CONSTANT HEAD =           0.0000
               WELLS =           0.0000                 WELLS =           0.0000
     HEAD DEP BOUNDS =        6662.5957       HEAD DEP BOUNDS =         666.2595

           TOTAL OUT =        6662.5957             TOTAL OUT =         666.2595

            IN - OUT =           0.4746              IN - OUT =       5.2795E-02

 PERCENT DISCREPANCY =           0.01     PERCENT DISCREPANCY =           0.01






         TIME SUMMARY AT END OF TIME STEP    9 IN STRESS PERIOD    2
                    SECONDS     MINUTES      HOURS       DAYS        YEARS
                    -----------------------------------------------------------
   TIME STEP LENGTH  86400.      1440.0      24.000      1.0000     2.73785E-03
 STRESS PERIOD TIME 7.77600E+05  12960.      216.00      9.0000     2.46407E-02
         TOTAL TIME 8.64000E+05  14400.      240.00      10.000     2.73785E-02
1
 
 SOLVING FOR HEAD 

 OUTPUT CONTROL FOR STRESS PERIOD    2   TIME STEP   10
    SAVE HEAD FOR ALL LAYERS
    SAVE DRAWDOWN FOR ALL LAYERS
    SAVE BUDGET
    PRINT HEAD FOR ALL LAYERS
    PRINT BUDGET
 UBDSV1 SAVING "         STORAGE" ON UNIT  53 AT TIME STEP 10, STRESS PERIOD   2
 UBDSV2 SAVING "   CONSTANT HEAD" ON UNIT  53 AT TIME STEP 10, STRESS PERIOD   2
 UBDSV1 SAVING "FLOW RIGHT FACE " ON UNIT  53 AT TIME STEP 10, STRESS PERIOD   2
 UBDSV1 SAVING "FLOW FRONT FACE " ON UNIT  53 AT TIME STEP 10, STRESS PERIOD   2
 UBDSV1 SAVING "FLOW LOWER FACE " ON UNIT  53 AT TIME STEP 10, STRESS PERIOD   2
1
              HEAD IN LAYER   1 AT END OF TIME STEP  10 IN STRESS PERIOD    2
  ---------------------------------------------------------------------------

            1           2           3           4           5           6           7           8           9          10
 ........................................................................................................................
   1    9.997       8.887       7.776       6.666       5.555       4.445       3.335       2.224       1.114      3.3313E-03
   2    9.997       8.887       7.776       6.666       5.555       4.445       3.335       2.224       1.114      3.3313E-03
   3    9.997       8.887       7.776       6.666       5.555       4.445       3.335       2.224       1.114      3.3313E-03
   4    9.997       8.887       7.776       6.666       5.555       4.445       3.335       2.224       1.114      3.3313E-03
   5    9.997       8.887       7.776       6.666       5.555       4.445       3.335       2.224       1.114      3.3313E-03
   6    9.997       8.887       7.776       6.666       5.555       4.445       3.335       2.224       1.114      3.3313E-03
   7    9.997       8.887       7.776       6.666       5.555       4.445       3.335       2.224       1.114      3.3313E-03
   8    9.997       8.887       7.776       6.666       5.555       4.445       3.335       2.224       1.114      3.3313E-03
   9    9.997       8.887       7.776       6.666       5.555       4.445       3.335       2.224       1.114      3.3313E-03
  10    9.997       8.887       7.776       6.666       5.555       4.445       3.335       2.224       1.114      3.3313E-03
1
              HEAD IN LAYER   2 AT END OF TIME STEP  10 IN STRESS PERIOD    2
  ---------------------------------------------------------------------------

            1           2           3           4           5           6           7           8           9          10
 ........................................................................................................................
   1    9.997       8.887       7.776       6.666       5.555       4.445       3.335       2.224       1.114      3.3313E-03
   2    9.997       8.887       7.776       6.666       5.555       4.445       3.335       2.224       1.114      3.3313E-03
   3    9.997       8.887       7.776       6.666       5.555       4.445       3.335       2.224       1.114      3.3313E-03
   4    9.997       8.887       7.776       6.666       5.555       4.445       3.335       2.224       1.114      3.3313E-03
   5    9.997       8.887       7.776       6.666       5.555       4.445       3.335       2.224       1.114      3.3313E-03
   6    9.997       8.887       7.776       6.666       5.555       4.445       3.335       2.224       1.114      3.3313E-03
   7    9.997       8.887       7.776       6.666       5.555       4.445       3.335       2.224       1.114      3.3313E-03
   8    9.997       8.887       7.776       6.666       5.555       4.445       3.335       2.224       1.114      3.3313E-03
   9    9.997       8.887       7.776       6.666       5.555       4.445       3.335       2.224       1.114      3.3313E-03
  10    9.997       8.887       7.776       6.666       5.555       4.445       3.335       2.224       1.114      3.3313E-03
1
              HEAD IN LAYER   3 AT END OF TIME STEP  10 IN STRESS PERIOD    2
  ---------------------------------------------------------------------------

            1           2           3           4           5           6           7           8           9          10
 ........................................................................................................................
   1    9.997       8.887       7.776       6.666       5.555       4.445       3.335       2.224       1.114      3.3313E-03
   2    9.997       8.887       7.776       6.666       5.555       4.445       3.335       2.224       1.114      3.3313E-03
   3    9.997       8.887       7.776       6.666       5.555       4.445       3.335       2.224       1.114      3.3313E-03
   4    9.997       8.887       7.776       6.666       5.555       4.445       3.335       2.224       1.114      3.3313E-03
   5    9.997       8.887       7.776       6.666       5.555       4.445       3.335       2.224       1.114      3.3313E-03
   6    9.997       8.887       7.776       6.666       5.555       4.445       3.335       2.224       1.114      3.3313E-03
   7    9.997       8.887       7.776       6.666       5.555       4.445       3.335       2.224       1.114      3.3313E-03
   8    9.997       8.887       7.776       6.666       5.555       4.445       3.335       2.224       1.114      3.3313E-03
   9    9.997       8.887       7.776       6.666       5.555       4.445       3.335       2.224       1.114      3.3313E-03
  10    9.997       8.887       7.776       6.666       5.555       4.445       3.335       2.224       1.114      3.3313E-03
1
              HEAD IN LAYER   4 AT END OF TIME STEP  10 IN STRESS PERIOD    2
  ---------------------------------------------------------------------------

            1           2           3           4           5           6           7           8           9          10
 ........................................................................................................................
   1    9.997       8.887       7.776       6.666       5.555       4.445       3.335       2.224       1.114      3.3313E-03
   2    9.997       8.887       7.776       6.666       5.555       4.445       3.335       2.224       1.114      3.3313E-03
   3    9.997       8.887       7.776       6.666       5.555       4.445       3.335       2.224       1.114      3.3313E-03
   4    9.997       8.887       7.776       6.666       5.555       4.445       3.335       2.224       1.114      3.3313E-03
   5    9.997       8.887       7.776       6.666       5.555       4.445       3.335       2.224       1.114      3.3313E-03
   6    9.997       8.887       7.776       6.666       5.555       4.445       3.335       2.224       1.114      3.3313E-03
   7    9.997       8.887       7.776       6.666       5.555       4.445       3.335       2.224       1.114      3.3313E-03
   8    9.997       8.887       7.776       6.666       5.555       4.445       3.335       2.224       1.114      3.3313E-03
   9    9.997       8.887       7.776       6.666       5.555       4.445       3.335       2.224       1.114      3.3313E-03
  10    9.997       8.887       7.776       6.666       5.555       4.445       3.335       2.224       1.114      3.3313E-03

 HEAD WILL BE SAVED ON UNIT   51 AT END OF TIME STEP   10, STRESS PERIOD    2

 DRAWDOWN WILL BE SAVED ON UNIT   52 AT END OF TIME STEP   10, STRESS PERIOD    2
1
  VOLUMETRIC BUDGET FOR ENTIRE MODEL AT END OF TIME STEP   10, STRESS PERIOD   2
  ------------------------------------------------------------------------------

     CUMULATIVE VOLUMES      L**3       RATES FOR THIS TIME STEP      L**3/T
     ------------------                 ------------------------

           IN:                                      IN:
           ---                                      ---
             STORAGE =       1.0477E-08               STORAGE =           0.0000
       CONSTANT HEAD =           0.0000         CONSTANT HEAD =           0.0000
               WELLS =           0.0000                 WELLS =           0.0000
     HEAD DEP BOUNDS =        7329.3828       HEAD DEP BOUNDS =         666.3123

            TOTAL IN =        7329.3828              TOTAL IN =         666.3123

          OUT:                                     OUT:
          ----                                     ----
             STORAGE =       5.2387E-08               STORAGE =           0.0000
       CONSTANT HEAD =           0.0000         CONSTANT HEAD =           0.0000
               WELLS =           0.0000                 WELLS =           0.0000
     HEAD DEP BOUNDS =        7328.8555       HEAD DEP BOUNDS =         666.2595

           TOTAL OUT =        7328.8555             TOTAL OUT =         666.2595

            IN - OUT =           0.5273              IN - OUT =       5.2795E-02

 PERCENT DISCREPANCY =           0.01     PERCENT DISCREPANCY =           0.01






         TIME SUMMARY AT END OF TIME STEP   10 IN STRESS PERIOD    2
                    SECONDS     MINUTES      HOURS       DAYS        YEARS
                    -----------------------------------------------------------
   TIME STEP LENGTH  86400.      1440.0      24.000      1.0000     2.73785E-03
 STRESS PERIOD TIME 8.64000E+05  14400.      240.00      10.000     2.73785E-02
         TOTAL TIME 9.50400E+05  15840.      264.00      11.000     3.01164E-02
1
 
 SOLVING FOR HEAD 

 OUTPUT CONTROL FOR STRESS PERIOD    2   TIME STEP   11
    SAVE HEAD FOR ALL LAYERS
    SAVE DRAWDOWN FOR ALL LAYERS
    SAVE BUDGET
    PRINT HEAD FOR ALL LAYERS
    PRINT BUDGET
 UBDSV1 SAVING "         STORAGE" ON UNIT  53 AT TIME STEP 11, STRESS PERIOD   2
 UBDSV2 SAVING "   CONSTANT HEAD" ON UNIT  53 AT TIME STEP 11, STRESS PERIOD   2
 UBDSV1 SAVING "FLOW RIGHT FACE " ON UNIT  53 AT TIME STEP 11, STRESS PERIOD   2
 UBDSV1 SAVING "FLOW FRONT FACE " ON UNIT  53 AT TIME STEP 11, STRESS PERIOD   2
 UBDSV1 SAVING "FLOW LOWER FACE " ON UNIT  53 AT TIME STEP 11, STRESS PERIOD   2
1
              HEAD IN LAYER   1 AT END OF TIME STEP  11 IN STRESS PERIOD    2
  ---------------------------------------------------------------------------

            1           2           3           4           5           6           7           8           9          10
 ........................................................................................................................
   1    9.997       8.887       7.776       6.666       5.555       4.445       3.335       2.224       1.114      3.3313E-03
   2    9.997       8.887       7.776       6.666       5.555       4.445       3.335       2.224       1.114      3.3313E-03
   3    9.997       8.887       7.776       6.666       5.555       4.445       3.335       2.224       1.114      3.3313E-03
   4    9.997       8.887       7.776       6.666       5.555       4.445       3.335       2.224       1.114      3.3313E-03
   5    9.997       8.887       7.776       6.666       5.555       4.445       3.335       2.224       1.114      3.3313E-03
   6    9.997       8.887       7.776       6.666       5.555       4.445       3.335       2.224       1.114      3.3313E-03
   7    9.997       8.887       7.776       6.666       5.555       4.445       3.335       2.224       1.114      3.3313E-03
   8    9.997       8.887       7.776       6.666       5.555       4.445       3.335       2.224       1.114      3.3313E-03
   9    9.997       8.887       7.776       6.666       5.555       4.445       3.335       2.224       1.114      3.3313E-03
  10    9.997       8.887       7.776       6.666       5.555       4.445       3.335       2.224       1.114      3.3313E-03
1
              HEAD IN LAYER   2 AT END OF TIME STEP  11 IN STRESS PERIOD    2
  ---------------------------------------------------------------------------

            1           2           3           4           5           6           7           8           9          10
 ........................................................................................................................
   1    9.997       8.887       7.776       6.666       5.555       4.445       3.335       2.224       1.114      3.3313E-03
   2    9.997       8.887       7.776       6.666       5.555       4.445       3.335       2.224       1.114      3.3313E-03
   3    9.997       8.887       7.776       6.666       5.555       4.445       3.335       2.224       1.114      3.3313E-03
   4    9.997       8.887       7.776       6.666       5.555       4.445       3.335       2.224       1.114      3.3313E-03
   5    9.997       8.887       7.776       6.666       5.555       4.445       3.335       2.224       1.114      3.3313E-03
   6    9.997       8.887       7.776       6.666       5.555       4.445       3.335       2.224       1.114      3.3313E-03
   7    9.997       8.887       7.776       6.666       5.555       4.445       3.335       2.224       1.114      3.3313E-03
   8    9.997       8.887       7.776       6.666       5.555       4.445       3.335       2.224       1.114      3.3313E-03
   9    9.997       8.887       7.776       6.666       5.555       4.445       3.335       2.224       1.114      3.3313E-03
  10    9.997       8.887       7.776       6.666       5.555       4.445       3.335       2.224       1.114      3.3313E-03
1
              HEAD IN LAYER   3 AT END OF TIME STEP  11 IN STRESS PERIOD    2
  ---------------------------------------------------------------------------

            1           2           3           4           5           6           7           8           9          10
 ........................................................................................................................
   1    9.997       8.887       7.776       6.666       5.555       4.445       3.335       2.224       1.114      3.3313E-03
   2    9.997       8.887       7.776       6.666       5.555       4.445       3.335       2.224       1.114      3.3313E-03
   3    9.997       8.887       7.776       6.666       5.555       4.445       3.335       2.224       1.114      3.3313E-03
   4    9.997       8.887       7.776       6.666       5.555       4.445       3.335       2.224       1.114      3.3313E-03
   5    9.997       8.887       7.776       6.666       5.555       4.445       3.335       2.224       1.114      3.3313E-03
   6    9.997       8.887       7.776       6.666       5.555       4.445       3.335       2.224       1.114      3.3313E-03
   7    9.997       8.887       7.776       6.666       5.555       4.445       3.335       2.224       1.114      3.3313E-03
   8    9.997       8.887       7.776       6.666       5.555       4.445       3.335       2.224       1.114      3.3313E-03
   9    9.997       8.887       7.776       6.666       5.555       4.445       3.335       2.224       1.114      3.3313E-03
  10    9.997       8.887       7.776       6.666       5.555       4.445       3.335       2.224       1.114      3.3313E-03
1
              HEAD IN LAYER   4 AT END OF TIME STEP  11 IN STRESS PERIOD    2
  ---------------------------------------------------------------------------

            1           2           3           4           5           6           7           8           9          10
 ........................................................................................................................
   1    9.997       8.887       7.776       6.666       5.555       4.445       3.335       2.224       1.114      3.3313E-03
   2    9.997       8.887       7.776       6.666       5.555       4.445       3.335       2.224       1.114      3.3313E-03
   3    9.997       8.887       7.776       6.666       5.555       4.445       3.335       2.224       1.114      3.3313E-03
   4    9.997       8.887       7.776       6.666       5.555       4.445       3.335       2.224       1.114      3.3313E-03
   5    9.997       8.887       7.776       6.666       5.555       4.445       3.335       2.224       1.114      3.3313E-03
   6    9.997       8.887       7.776       6.666       5.555       4.445       3.335       2.224       1.114      3.3313E-03
   7    9.997       8.887       7.776       6.666       5.555       4.445       3.335       2.224       1.114      3.3313E-03
   8    9.997       8.887       7.776       6.666       5.555       4.445       3.335       2.224       1.114      3.3313E-03
   9    9.997       8.887       7.776       6.666       5.555       4.445       3.335       2.224       1.114      3.3313E-03
  10    9.997       8.887       7.776       6.666       5.555       4.445       3.335       2.224       1.114      3.3313E-03

 HEAD WILL BE SAVED ON UNIT   51 AT END OF TIME STEP   11, STRESS PERIOD    2

 DRAWDOWN WILL BE SAVED ON UNIT   52 AT END OF TIME STEP   11, STRESS PERIOD    2
1
  VOLUMETRIC BUDGET FOR ENTIRE MODEL AT END OF TIME STEP   11, STRESS PERIOD   2
  ------------------------------------------------------------------------------

     CUMULATIVE VOLUMES      L**3       RATES FOR THIS TIME STEP      L**3/T
     ------------------                 ------------------------

           IN:                                      IN:
           ---                                      ---
             STORAGE =       1.0477E-08               STORAGE =           0.0000
       CONSTANT HEAD =           0.0000         CONSTANT HEAD =           0.0000
               WELLS =           0.0000                 WELLS =           0.0000
     HEAD DEP BOUNDS =        7995.6953       HEAD DEP BOUNDS =         666.3123

            TOTAL IN =        7995.6953              TOTAL IN =         666.3123

          OUT:                                     OUT:
          ----                                     ----
             STORAGE =       5.2387E-08               STORAGE =           0.0000
       CONSTANT HEAD =           0.0000         CONSTANT HEAD =           0.0000
               WELLS =           0.0000                 WELLS =           0.0000
     HEAD DEP BOUNDS =        7995.1152       HEAD DEP BOUNDS =         666.2595

           TOTAL OUT =        7995.1152             TOTAL OUT =         666.2595

            IN - OUT =           0.5801              IN - OUT =       5.2795E-02

 PERCENT DISCREPANCY =           0.01     PERCENT DISCREPANCY =           0.01






         TIME SUMMARY AT END OF TIME STEP   11 IN STRESS PERIOD    2
                    SECONDS     MINUTES      HOURS       DAYS        YEARS
                    -----------------------------------------------------------
   TIME STEP LENGTH  86400.      1440.0      24.000      1.0000     2.73785E-03
 STRESS PERIOD TIME 9.50400E+05  15840.      264.00      11.000     3.01164E-02
         TOTAL TIME 1.03680E+06  17280.      288.00      12.000     3.28542E-02
1
 
 SOLVING FOR HEAD 

 OUTPUT CONTROL FOR STRESS PERIOD    2   TIME STEP   12
    SAVE HEAD FOR ALL LAYERS
    SAVE DRAWDOWN FOR ALL LAYERS
    SAVE BUDGET
    PRINT HEAD FOR ALL LAYERS
    PRINT BUDGET
 UBDSV1 SAVING "         STORAGE" ON UNIT  53 AT TIME STEP 12, STRESS PERIOD   2
 UBDSV2 SAVING "   CONSTANT HEAD" ON UNIT  53 AT TIME STEP 12, STRESS PERIOD   2
 UBDSV1 SAVING "FLOW RIGHT FACE " ON UNIT  53 AT TIME STEP 12, STRESS PERIOD   2
 UBDSV1 SAVING "FLOW FRONT FACE " ON UNIT  53 AT TIME STEP 12, STRESS PERIOD   2
 UBDSV1 SAVING "FLOW LOWER FACE " ON UNIT  53 AT TIME STEP 12, STRESS PERIOD   2
1
              HEAD IN LAYER   1 AT END OF TIME STEP  12 IN STRESS PERIOD    2
  ---------------------------------------------------------------------------

            1           2           3           4           5           6           7           8           9          10
 ........................................................................................................................
   1    9.997       8.887       7.776       6.666       5.555       4.445       3.335       2.224       1.114      3.3313E-03
   2    9.997       8.887       7.776       6.666       5.555       4.445       3.335       2.224       1.114      3.3313E-03
   3    9.997       8.887       7.776       6.666       5.555       4.445       3.335       2.224       1.114      3.3313E-03
   4    9.997       8.887       7.776       6.666       5.555       4.445       3.335       2.224       1.114      3.3313E-03
   5    9.997       8.887       7.776       6.666       5.555       4.445       3.335       2.224       1.114      3.3313E-03
   6    9.997       8.887       7.776       6.666       5.555       4.445       3.335       2.224       1.114      3.3313E-03
   7    9.997       8.887       7.776       6.666       5.555       4.445       3.335       2.224       1.114      3.3313E-03
   8    9.997       8.887       7.776       6.666       5.555       4.445       3.335       2.224       1.114      3.3313E-03
   9    9.997       8.887       7.776       6.666       5.555       4.445       3.335       2.224       1.114      3.3313E-03
  10    9.997       8.887       7.776       6.666       5.555       4.445       3.335       2.224       1.114      3.3313E-03
1
              HEAD IN LAYER   2 AT END OF TIME STEP  12 IN STRESS PERIOD    2
  ---------------------------------------------------------------------------

            1           2           3           4           5           6           7           8           9          10
 ........................................................................................................................
   1    9.997       8.887       7.776       6.666       5.555       4.445       3.335       2.224       1.114      3.3313E-03
   2    9.997       8.887       7.776       6.666       5.555       4.445       3.335       2.224       1.114      3.3313E-03
   3    9.997       8.887       7.776       6.666       5.555       4.445       3.335       2.224       1.114      3.3313E-03
   4    9.997       8.887       7.776       6.666       5.555       4.445       3.335       2.224       1.114      3.3313E-03
   5    9.997       8.887       7.776       6.666       5.555       4.445       3.335       2.224       1.114      3.3313E-03
   6    9.997       8.887       7.776       6.666       5.555       4.445       3.335       2.224       1.114      3.3313E-03
   7    9.997       8.887       7.776       6.666       5.555       4.445       3.335       2.224       1.114      3.3313E-03
   8    9.997       8.887       7.776       6.666       5.555       4.445       3.335       2.224       1.114      3.3313E-03
   9    9.997       8.887       7.776       6.666       5.555       4.445       3.335       2.224       1.114      3.3313E-03
  10    9.997       8.887       7.776       6.666       5.555       4.445       3.335       2.224       1.114      3.3313E-03
1
              HEAD IN LAYER   3 AT END OF TIME STEP  12 IN STRESS PERIOD    2
  ---------------------------------------------------------------------------

            1           2           3           4           5           6           7           8           9          10
 ........................................................................................................................
   1    9.997       8.887       7.776       6.666       5.555       4.445       3.335       2.224       1.114      3.3313E-03
   2    9.997       8.887       7.776       6.666       5.555       4.445       3.335       2.224       1.114      3.3313E-03
   3    9.997       8.887       7.776       6.666       5.555       4.445       3.335       2.224       1.114      3.3313E-03
   4    9.997       8.887       7.776       6.666       5.555       4.445       3.335       2.224       1.114      3.3313E-03
   5    9.997       8.887       7.776       6.666       5.555       4.445       3.335       2.224       1.114      3.3313E-03
   6    9.997       8.887       7.776       6.666       5.555       4.445       3.335       2.224       1.114      3.3313E-03
   7    9.997       8.887       7.776       6.666       5.555       4.445       3.335       2.224       1.114      3.3313E-03
   8    9.997       8.887       7.776       6.666       5.555       4.445       3.335       2.224       1.114      3.3313E-03
   9    9.997       8.887       7.776       6.666       5.555       4.445       3.335       2.224       1.114      3.3313E-03
  10    9.997       8.887       7.776       6.666       5.555       4.445       3.335       2.224       1.114      3.3313E-03
1
              HEAD IN LAYER   4 AT END OF TIME STEP  12 IN STRESS PERIOD    2
  ---------------------------------------------------------------------------

            1           2           3           4           5           6           7           8           9          10
 ........................................................................................................................
   1    9.997       8.887       7.776       6.666       5.555       4.445       3.335       2.224       1.114      3.3313E-03
   2    9.997       8.887       7.776       6.666       5.555       4.445       3.335       2.224       1.114      3.3313E-03
   3    9.997       8.887       7.776       6.666       5.555       4.445       3.335       2.224       1.114      3.3313E-03
   4    9.997       8.887       7.776       6.666       5.555       4.445       3.335       2.224       1.114      3.3313E-03
   5    9.997       8.887       7.776       6.666       5.555       4.445       3.335       2.224       1.114      3.3313E-03
   6    9.997       8.887       7.776       6.666       5.555       4.445       3.335       2.224       1.114      3.3313E-03
   7    9.997       8.887       7.776       6.666       5.555       4.445       3.335       2.224       1.114      3.3313E-03
   8    9.997       8.887       7.776       6.666       5.555       4.445       3.335       2.224       1.114      3.3313E-03
   9    9.997       8.887       7.776       6.666       5.555       4.445       3.335       2.224       1.114      3.3313E-03
  10    9.997       8.887       7.776       6.666       5.555       4.445       3.335       2.224       1.114      3.3313E-03

 HEAD WILL BE SAVED ON UNIT   51 AT END OF TIME STEP   12, STRESS PERIOD    2

 DRAWDOWN WILL BE SAVED ON UNIT   52 AT END OF TIME STEP   12, STRESS PERIOD    2
1
  VOLUMETRIC BUDGET FOR ENTIRE MODEL AT END OF TIME STEP   12, STRESS PERIOD   2
  ------------------------------------------------------------------------------

     CUMULATIVE VOLUMES      L**3       RATES FOR THIS TIME STEP      L**3/T
     ------------------                 ------------------------

           IN:                                      IN:
           ---                                      ---
             STORAGE =       1.0477E-08               STORAGE =           0.0000
       CONSTANT HEAD =           0.0000         CONSTANT HEAD =           0.0000
               WELLS =           0.0000                 WELLS =           0.0000
     HEAD DEP BOUNDS =        8662.0078       HEAD DEP BOUNDS =         666.3123

            TOTAL IN =        8662.0078              TOTAL IN =         666.3123

          OUT:                                     OUT:
          ----                                     ----
             STORAGE =       5.2387E-08               STORAGE =           0.0000
       CONSTANT HEAD =           0.0000         CONSTANT HEAD =           0.0000
               WELLS =           0.0000                 WELLS =           0.0000
     HEAD DEP BOUNDS =        8661.3750       HEAD DEP BOUNDS =         666.2595

           TOTAL OUT =        8661.3750             TOTAL OUT =         666.2595

            IN - OUT =           0.6328              IN - OUT =       5.2795E-02

 PERCENT DISCREPANCY =           0.01     PERCENT DISCREPANCY =           0.01






         TIME SUMMARY AT END OF TIME STEP   12 IN STRESS PERIOD    2
                    SECONDS     MINUTES      HOURS       DAYS        YEARS
                    -----------------------------------------------------------
   TIME STEP LENGTH  86400.      1440.0      24.000      1.0000     2.73785E-03
 STRESS PERIOD TIME 1.03680E+06  17280.      288.00      12.000     3.28542E-02
         TOTAL TIME 1.12320E+06  18720.      312.00      13.000     3.55921E-02
1
 
 SOLVING FOR HEAD 

 OUTPUT CONTROL FOR STRESS PERIOD    2   TIME STEP   13
    SAVE HEAD FOR ALL LAYERS
    SAVE DRAWDOWN FOR ALL LAYERS
    SAVE BUDGET
    PRINT HEAD FOR ALL LAYERS
    PRINT BUDGET
 UBDSV1 SAVING "         STORAGE" ON UNIT  53 AT TIME STEP 13, STRESS PERIOD   2
 UBDSV2 SAVING "   CONSTANT HEAD" ON UNIT  53 AT TIME STEP 13, STRESS PERIOD   2
 UBDSV1 SAVING "FLOW RIGHT FACE " ON UNIT  53 AT TIME STEP 13, STRESS PERIOD   2
 UBDSV1 SAVING "FLOW FRONT FACE " ON UNIT  53 AT TIME STEP 13, STRESS PERIOD   2
 UBDSV1 SAVING "FLOW LOWER FACE " ON UNIT  53 AT TIME STEP 13, STRESS PERIOD   2
1
              HEAD IN LAYER   1 AT END OF TIME STEP  13 IN STRESS PERIOD    2
  ---------------------------------------------------------------------------

            1           2           3           4           5           6           7           8           9          10
 ........................................................................................................................
   1    9.997       8.887       7.776       6.666       5.555       4.445       3.335       2.224       1.114      3.3313E-03
   2    9.997       8.887       7.776       6.666       5.555       4.445       3.335       2.224       1.114      3.3313E-03
   3    9.997       8.887       7.776       6.666       5.555       4.445       3.335       2.224       1.114      3.3313E-03
   4    9.997       8.887       7.776       6.666       5.555       4.445       3.335       2.224       1.114      3.3313E-03
   5    9.997       8.887       7.776       6.666       5.555       4.445       3.335       2.224       1.114      3.3313E-03
   6    9.997       8.887       7.776       6.666       5.555       4.445       3.335       2.224       1.114      3.3313E-03
   7    9.997       8.887       7.776       6.666       5.555       4.445       3.335       2.224       1.114      3.3313E-03
   8    9.997       8.887       7.776       6.666       5.555       4.445       3.335       2.224       1.114      3.3313E-03
   9    9.997       8.887       7.776       6.666       5.555       4.445       3.335       2.224       1.114      3.3313E-03
  10    9.997       8.887       7.776       6.666       5.555       4.445       3.335       2.224       1.114      3.3313E-03
1
              HEAD IN LAYER   2 AT END OF TIME STEP  13 IN STRESS PERIOD    2
  ---------------------------------------------------------------------------

            1           2           3           4           5           6           7           8           9          10
 ........................................................................................................................
   1    9.997       8.887       7.776       6.666       5.555       4.445       3.335       2.224       1.114      3.3313E-03
   2    9.997       8.887       7.776       6.666       5.555       4.445       3.335       2.224       1.114      3.3313E-03
   3    9.997       8.887       7.776       6.666       5.555       4.445       3.335       2.224       1.114      3.3313E-03
   4    9.997       8.887       7.776       6.666       5.555       4.445       3.335       2.224       1.114      3.3313E-03
   5    9.997       8.887       7.776       6.666       5.555       4.445       3.335       2.224       1.114      3.3313E-03
   6    9.997       8.887       7.776       6.666       5.555       4.445       3.335       2.224       1.114      3.3313E-03
   7    9.997       8.887       7.776       6.666       5.555       4.445       3.335       2.224       1.114      3.3313E-03
   8    9.997       8.887       7.776       6.666       5.555       4.445       3.335       2.224       1.114      3.3313E-03
   9    9.997       8.887       7.776       6.666       5.555       4.445       3.335       2.224       1.114      3.3313E-03
  10    9.997       8.887       7.776       6.666       5.555       4.445       3.335       2.224       1.114      3.3313E-03
1
              HEAD IN LAYER   3 AT END OF TIME STEP  13 IN STRESS PERIOD    2
  ---------------------------------------------------------------------------

            1           2           3           4           5           6           7           8           9          10
 ........................................................................................................................
   1    9.997       8.887       7.776       6.666       5.555       4.445       3.335       2.224       1.114      3.3313E-03
   2    9.997       8.887       7.776       6.666       5.555       4.445       3.335       2.224       1.114      3.3313E-03
   3    9.997       8.887       7.776       6.666       5.555       4.445       3.335       2.224       1.114      3.3313E-03
   4    9.997       8.887       7.776       6.666       5.555       4.445       3.335       2.224       1.114      3.3313E-03
   5    9.997       8.887       7.776       6.666       5.555       4.445       3.335       2.224       1.114      3.3313E-03
   6    9.997       8.887       7.776       6.666       5.555       4.445       3.335       2.224       1.114      3.3313E-03
   7    9.997       8.887       7.776       6.666       5.555       4.445       3.335       2.224       1.114      3.3313E-03
   8    9.997       8.887       7.776       6.666       5.555       4.445       3.335       2.224       1.114      3.3313E-03
   9    9.997       8.887       7.776       6.666       5.555       4.445       3.335       2.224       1.114      3.3313E-03
  10    9.997       8.887       7.776       6.666       5.555       4.445       3.335       2.224       1.114      3.3313E-03
1
              HEAD IN LAYER   4 AT END OF TIME STEP  13 IN STRESS PERIOD    2
  ---------------------------------------------------------------------------

            1           2           3           4           5           6           7           8           9          10
 ........................................................................................................................
   1    9.997       8.887       7.776       6.666       5.555       4.445       3.335       2.224       1.114      3.3313E-03
   2    9.997       8.887       7.776       6.666       5.555       4.445       3.335       2.224       1.114      3.3313E-03
   3    9.997       8.887       7.776       6.666       5.555       4.445       3.335       2.224       1.114      3.3313E-03
   4    9.997       8.887       7.776       6.666       5.555       4.445       3.335       2.224       1.114      3.3313E-03
   5    9.997       8.887       7.776       6.666       5.555       4.445       3.335       2.224       1.114      3.3313E-03
   6    9.997       8.887       7.776       6.666       5.555       4.445       3.335       2.224       1.114      3.3313E-03
   7    9.997       8.887       7.776       6.666       5.555       4.445       3.335       2.224       1.114      3.3313E-03
   8    9.997       8.887       7.776       6.666       5.555       4.445       3.335       2.224       1.114      3.3313E-03
   9    9.997       8.887       7.776       6.666       5.555       4.445       3.335       2.224       1.114      3.3313E-03
  10    9.997       8.887       7.776       6.666       5.555       4.445       3.335       2.224       1.114      3.3313E-03

 HEAD WILL BE SAVED ON UNIT   51 AT END OF TIME STEP   13, STRESS PERIOD    2

 DRAWDOWN WILL BE SAVED ON UNIT   52 AT END OF TIME STEP   13, STRESS PERIOD    2
1
  VOLUMETRIC BUDGET FOR ENTIRE MODEL AT END OF TIME STEP   13, STRESS PERIOD   2
  ------------------------------------------------------------------------------

     CUMULATIVE VOLUMES      L**3       RATES FOR THIS TIME STEP      L**3/T
     ------------------                 ------------------------

           IN:                                      IN:
           ---                                      ---
             STORAGE =       1.0477E-08               STORAGE =           0.0000
       CONSTANT HEAD =           0.0000         CONSTANT HEAD =           0.0000
               WELLS =           0.0000                 WELLS =           0.0000
     HEAD DEP BOUNDS =        9328.3203       HEAD DEP BOUNDS =         666.3123

            TOTAL IN =        9328.3203              TOTAL IN =         666.3123

          OUT:                                     OUT:
          ----                                     ----
             STORAGE =       5.2387E-08               STORAGE =           0.0000
       CONSTANT HEAD =           0.0000         CONSTANT HEAD =           0.0000
               WELLS =           0.0000                 WELLS =           0.0000
     HEAD DEP BOUNDS =        9327.6348       HEAD DEP BOUNDS =         666.2595

           TOTAL OUT =        9327.6348             TOTAL OUT =         666.2595

            IN - OUT =           0.6855              IN - OUT =       5.2795E-02

 PERCENT DISCREPANCY =           0.01     PERCENT DISCREPANCY =           0.01






         TIME SUMMARY AT END OF TIME STEP   13 IN STRESS PERIOD    2
                    SECONDS     MINUTES      HOURS       DAYS        YEARS
                    -----------------------------------------------------------
   TIME STEP LENGTH  86400.      1440.0      24.000      1.0000     2.73785E-03
 STRESS PERIOD TIME 1.12320E+06  18720.      312.00      13.000     3.55921E-02
         TOTAL TIME 1.20960E+06  20160.      336.00      14.000     3.83299E-02
1
 
 SOLVING FOR HEAD 

 OUTPUT CONTROL FOR STRESS PERIOD    2   TIME STEP   14
    SAVE HEAD FOR ALL LAYERS
    SAVE DRAWDOWN FOR ALL LAYERS
    SAVE BUDGET
    PRINT HEAD FOR ALL LAYERS
    PRINT BUDGET
 UBDSV1 SAVING "         STORAGE" ON UNIT  53 AT TIME STEP 14, STRESS PERIOD   2
 UBDSV2 SAVING "   CONSTANT HEAD" ON UNIT  53 AT TIME STEP 14, STRESS PERIOD   2
 UBDSV1 SAVING "FLOW RIGHT FACE " ON UNIT  53 AT TIME STEP 14, STRESS PERIOD   2
 UBDSV1 SAVING "FLOW FRONT FACE " ON UNIT  53 AT TIME STEP 14, STRESS PERIOD   2
 UBDSV1 SAVING "FLOW LOWER FACE " ON UNIT  53 AT TIME STEP 14, STRESS PERIOD   2
1
              HEAD IN LAYER   1 AT END OF TIME STEP  14 IN STRESS PERIOD    2
  ---------------------------------------------------------------------------

            1           2           3           4           5           6           7           8           9          10
 ........................................................................................................................
   1    9.997       8.887       7.776       6.666       5.555       4.445       3.335       2.224       1.114      3.3313E-03
   2    9.997       8.887       7.776       6.666       5.555       4.445       3.335       2.224       1.114      3.3313E-03
   3    9.997       8.887       7.776       6.666       5.555       4.445       3.335       2.224       1.114      3.3313E-03
   4    9.997       8.887       7.776       6.666       5.555       4.445       3.335       2.224       1.114      3.3313E-03
   5    9.997       8.887       7.776       6.666       5.555       4.445       3.335       2.224       1.114      3.3313E-03
   6    9.997       8.887       7.776       6.666       5.555       4.445       3.335       2.224       1.114      3.3313E-03
   7    9.997       8.887       7.776       6.666       5.555       4.445       3.335       2.224       1.114      3.3313E-03
   8    9.997       8.887       7.776       6.666       5.555       4.445       3.335       2.224       1.114      3.3313E-03
   9    9.997       8.887       7.776       6.666       5.555       4.445       3.335       2.224       1.114      3.3313E-03
  10    9.997       8.887       7.776       6.666       5.555       4.445       3.335       2.224       1.114      3.3313E-03
1
              HEAD IN LAYER   2 AT END OF TIME STEP  14 IN STRESS PERIOD    2
  ---------------------------------------------------------------------------

            1           2           3           4           5           6           7           8           9          10
 ........................................................................................................................
   1    9.997       8.887       7.776       6.666       5.555       4.445       3.335       2.224       1.114      3.3313E-03
   2    9.997       8.887       7.776       6.666       5.555       4.445       3.335       2.224       1.114      3.3313E-03
   3    9.997       8.887       7.776       6.666       5.555       4.445       3.335       2.224       1.114      3.3313E-03
   4    9.997       8.887       7.776       6.666       5.555       4.445       3.335       2.224       1.114      3.3313E-03
   5    9.997       8.887       7.776       6.666       5.555       4.445       3.335       2.224       1.114      3.3313E-03
   6    9.997       8.887       7.776       6.666       5.555       4.445       3.335       2.224       1.114      3.3313E-03
   7    9.997       8.887       7.776       6.666       5.555       4.445       3.335       2.224       1.114      3.3313E-03
   8    9.997       8.887       7.776       6.666       5.555       4.445       3.335       2.224       1.114      3.3313E-03
   9    9.997       8.887       7.776       6.666       5.555       4.445       3.335       2.224       1.114      3.3313E-03
  10    9.997       8.887       7.776       6.666       5.555       4.445       3.335       2.224       1.114      3.3313E-03
1
              HEAD IN LAYER   3 AT END OF TIME STEP  14 IN STRESS PERIOD    2
  ---------------------------------------------------------------------------

            1           2           3           4           5           6           7           8           9          10
 ........................................................................................................................
   1    9.997       8.887       7.776       6.666       5.555       4.445       3.335       2.224       1.114      3.3313E-03
   2    9.997       8.887       7.776       6.666       5.555       4.445       3.335       2.224       1.114      3.3313E-03
   3    9.997       8.887       7.776       6.666       5.555       4.445       3.335       2.224       1.114      3.3313E-03
   4    9.997       8.887       7.776       6.666       5.555       4.445       3.335       2.224       1.114      3.3313E-03
   5    9.997       8.887       7.776       6.666       5.555       4.445       3.335       2.224       1.114      3.3313E-03
   6    9.997       8.887       7.776       6.666       5.555       4.445       3.335       2.224       1.114      3.3313E-03
   7    9.997       8.887       7.776       6.666       5.555       4.445       3.335       2.224       1.114      3.3313E-03
   8    9.997       8.887       7.776       6.666       5.555       4.445       3.335       2.224       1.114      3.3313E-03
   9    9.997       8.887       7.776       6.666       5.555       4.445       3.335       2.224       1.114      3.3313E-03
  10    9.997       8.887       7.776       6.666       5.555       4.445       3.335       2.224       1.114      3.3313E-03
1
              HEAD IN LAYER   4 AT END OF TIME STEP  14 IN STRESS PERIOD    2
  ---------------------------------------------------------------------------

            1           2           3           4           5           6           7           8           9          10
 ........................................................................................................................
   1    9.997       8.887       7.776       6.666       5.555       4.445       3.335       2.224       1.114      3.3313E-03
   2    9.997       8.887       7.776       6.666       5.555       4.445       3.335       2.224       1.114      3.3313E-03
   3    9.997       8.887       7.776       6.666       5.555       4.445       3.335       2.224       1.114      3.3313E-03
   4    9.997       8.887       7.776       6.666       5.555       4.445       3.335       2.224       1.114      3.3313E-03
   5    9.997       8.887       7.776       6.666       5.555       4.445       3.335       2.224       1.114      3.3313E-03
   6    9.997       8.887       7.776       6.666       5.555       4.445       3.335       2.224       1.114      3.3313E-03
   7    9.997       8.887       7.776       6.666       5.555       4.445       3.335       2.224       1.114      3.3313E-03
   8    9.997       8.887       7.776       6.666       5.555       4.445       3.335       2.224       1.114      3.3313E-03
   9    9.997       8.887       7.776       6.666       5.555       4.445       3.335       2.224       1.114      3.3313E-03
  10    9.997       8.887       7.776       6.666       5.555       4.445       3.335       2.224       1.114      3.3313E-03

 HEAD WILL BE SAVED ON UNIT   51 AT END OF TIME STEP   14, STRESS PERIOD    2

 DRAWDOWN WILL BE SAVED ON UNIT   52 AT END OF TIME STEP   14, STRESS PERIOD    2
1
  VOLUMETRIC BUDGET FOR ENTIRE MODEL AT END OF TIME STEP   14, STRESS PERIOD   2
  ------------------------------------------------------------------------------

     CUMULATIVE VOLUMES      L**3       RATES FOR THIS TIME STEP      L**3/T
     ------------------                 ------------------------

           IN:                                      IN:
           ---                                      ---
             STORAGE =       1.0477E-08               STORAGE =           0.0000
       CONSTANT HEAD =           0.0000         CONSTANT HEAD =           0.0000
               WELLS =           0.0000                 WELLS =           0.0000
     HEAD DEP BOUNDS =        9994.6328       HEAD DEP BOUNDS =         666.3123

            TOTAL IN =        9994.6328              TOTAL IN =         666.3123

          OUT:                                     OUT:
          ----                                     ----
             STORAGE =       5.2387E-08               STORAGE =           0.0000
       CONSTANT HEAD =           0.0000         CONSTANT HEAD =           0.0000
               WELLS =           0.0000                 WELLS =           0.0000
     HEAD DEP BOUNDS =        9993.8945       HEAD DEP BOUNDS =         666.2595

           TOTAL OUT =        9993.8945             TOTAL OUT =         666.2595

            IN - OUT =           0.7383              IN - OUT =       5.2795E-02

 PERCENT DISCREPANCY =           0.01     PERCENT DISCREPANCY =           0.01






         TIME SUMMARY AT END OF TIME STEP   14 IN STRESS PERIOD    2
                    SECONDS     MINUTES      HOURS       DAYS        YEARS
                    -----------------------------------------------------------
   TIME STEP LENGTH  86400.      1440.0      24.000      1.0000     2.73785E-03
 STRESS PERIOD TIME 1.20960E+06  20160.      336.00      14.000     3.83299E-02
         TOTAL TIME 1.29600E+06  21600.      360.00      15.000     4.10678E-02
1
 
 SOLVING FOR HEAD 

 OUTPUT CONTROL FOR STRESS PERIOD    2   TIME STEP   15
    SAVE HEAD FOR ALL LAYERS
    SAVE DRAWDOWN FOR ALL LAYERS
    SAVE BUDGET
    PRINT HEAD FOR ALL LAYERS
    PRINT BUDGET
 UBDSV1 SAVING "         STORAGE" ON UNIT  53 AT TIME STEP 15, STRESS PERIOD   2
 UBDSV2 SAVING "   CONSTANT HEAD" ON UNIT  53 AT TIME STEP 15, STRESS PERIOD   2
 UBDSV1 SAVING "FLOW RIGHT FACE " ON UNIT  53 AT TIME STEP 15, STRESS PERIOD   2
 UBDSV1 SAVING "FLOW FRONT FACE " ON UNIT  53 AT TIME STEP 15, STRESS PERIOD   2
 UBDSV1 SAVING "FLOW LOWER FACE " ON UNIT  53 AT TIME STEP 15, STRESS PERIOD   2
1
              HEAD IN LAYER   1 AT END OF TIME STEP  15 IN STRESS PERIOD    2
  ---------------------------------------------------------------------------

            1           2           3           4           5           6           7           8           9          10
 ........................................................................................................................
   1    9.997       8.887       7.776       6.666       5.555       4.445       3.335       2.224       1.114      3.3313E-03
   2    9.997       8.887       7.776       6.666       5.555       4.445       3.335       2.224       1.114      3.3313E-03
   3    9.997       8.887       7.776       6.666       5.555       4.445       3.335       2.224       1.114      3.3313E-03
   4    9.997       8.887       7.776       6.666       5.555       4.445       3.335       2.224       1.114      3.3313E-03
   5    9.997       8.887       7.776       6.666       5.555       4.445       3.335       2.224       1.114      3.3313E-03
   6    9.997       8.887       7.776       6.666       5.555       4.445       3.335       2.224       1.114      3.3313E-03
   7    9.997       8.887       7.776       6.666       5.555       4.445       3.335       2.224       1.114      3.3313E-03
   8    9.997       8.887       7.776       6.666       5.555       4.445       3.335       2.224       1.114      3.3313E-03
   9    9.997       8.887       7.776       6.666       5.555       4.445       3.335       2.224       1.114      3.3313E-03
  10    9.997       8.887       7.776       6.666       5.555       4.445       3.335       2.224       1.114      3.3313E-03
1
              HEAD IN LAYER   2 AT END OF TIME STEP  15 IN STRESS PERIOD    2
  ---------------------------------------------------------------------------

            1           2           3           4           5           6           7           8           9          10
 ........................................................................................................................
   1    9.997       8.887       7.776       6.666       5.555       4.445       3.335       2.224       1.114      3.3313E-03
   2    9.997       8.887       7.776       6.666       5.555       4.445       3.335       2.224       1.114      3.3313E-03
   3    9.997       8.887       7.776       6.666       5.555       4.445       3.335       2.224       1.114      3.3313E-03
   4    9.997       8.887       7.776       6.666       5.555       4.445       3.335       2.224       1.114      3.3313E-03
   5    9.997       8.887       7.776       6.666       5.555       4.445       3.335       2.224       1.114      3.3313E-03
   6    9.997       8.887       7.776       6.666       5.555       4.445       3.335       2.224       1.114      3.3313E-03
   7    9.997       8.887       7.776       6.666       5.555       4.445       3.335       2.224       1.114      3.3313E-03
   8    9.997       8.887       7.776       6.666       5.555       4.445       3.335       2.224       1.114      3.3313E-03
   9    9.997       8.887       7.776       6.666       5.555       4.445       3.335       2.224       1.114      3.3313E-03
  10    9.997       8.887       7.776       6.666       5.555       4.445       3.335       2.224       1.114      3.3313E-03
1
              HEAD IN LAYER   3 AT END OF TIME STEP  15 IN STRESS PERIOD    2
  ---------------------------------------------------------------------------

            1           2           3           4           5           6           7           8           9          10
 ........................................................................................................................
   1    9.997       8.887       7.776       6.666       5.555       4.445       3.335       2.224       1.114      3.3313E-03
   2    9.997       8.887       7.776       6.666       5.555       4.445       3.335       2.224       1.114      3.3313E-03
   3    9.997       8.887       7.776       6.666       5.555       4.445       3.335       2.224       1.114      3.3313E-03
   4    9.997       8.887       7.776       6.666       5.555       4.445       3.335       2.224       1.114      3.3313E-03
   5    9.997       8.887       7.776       6.666       5.555       4.445       3.335       2.224       1.114      3.3313E-03
   6    9.997       8.887       7.776       6.666       5.555       4.445       3.335       2.224       1.114      3.3313E-03
   7    9.997       8.887       7.776       6.666       5.555       4.445       3.335       2.224       1.114      3.3313E-03
   8    9.997       8.887       7.776       6.666       5.555       4.445       3.335       2.224       1.114      3.3313E-03
   9    9.997       8.887       7.776       6.666       5.555       4.445       3.335       2.224       1.114      3.3313E-03
  10    9.997       8.887       7.776       6.666       5.555       4.445       3.335       2.224       1.114      3.3313E-03
1
              HEAD IN LAYER   4 AT END OF TIME STEP  15 IN STRESS PERIOD    2
  ---------------------------------------------------------------------------

            1           2           3           4           5           6           7           8           9          10
 ........................................................................................................................
   1    9.997       8.887       7.776       6.666       5.555       4.445       3.335       2.224       1.114      3.3313E-03
   2    9.997       8.887       7.776       6.666       5.555       4.445       3.335       2.224       1.114      3.3313E-03
   3    9.997       8.887       7.776       6.666       5.555       4.445       3.335       2.224       1.114      3.3313E-03
   4    9.997       8.887       7.776       6.666       5.555       4.445       3.335       2.224       1.114      3.3313E-03
   5    9.997       8.887       7.776       6.666       5.555       4.445       3.335       2.224       1.114      3.3313E-03
   6    9.997       8.887       7.776       6.666       5.555       4.445       3.335       2.224       1.114      3.3313E-03
   7    9.997       8.887       7.776       6.666       5.555       4.445       3.335       2.224       1.114      3.3313E-03
   8    9.997       8.887       7.776       6.666       5.555       4.445       3.335       2.224       1.114      3.3313E-03
   9    9.997       8.887       7.776       6.666       5.555       4.445       3.335       2.224       1.114      3.3313E-03
  10    9.997       8.887       7.776       6.666       5.555       4.445       3.335       2.224       1.114      3.3313E-03

 HEAD WILL BE SAVED ON UNIT   51 AT END OF TIME STEP   15, STRESS PERIOD    2

 DRAWDOWN WILL BE SAVED ON UNIT   52 AT END OF TIME STEP   15, STRESS PERIOD    2
1
  VOLUMETRIC BUDGET FOR ENTIRE MODEL AT END OF TIME STEP   15, STRESS PERIOD   2
  ------------------------------------------------------------------------------

     CUMULATIVE VOLUMES      L**3       RATES FOR THIS TIME STEP      L**3/T
     ------------------                 ------------------------

           IN:                                      IN:
           ---                                      ---
             STORAGE =       1.0477E-08               STORAGE =           0.0000
       CONSTANT HEAD =           0.0000         CONSTANT HEAD =           0.0000
               WELLS =           0.0000                 WELLS =           0.0000
     HEAD DEP BOUNDS =       10660.9453       HEAD DEP BOUNDS =         666.3123

            TOTAL IN =       10660.9453              TOTAL IN =         666.3123

          OUT:                                     OUT:
          ----                                     ----
             STORAGE =       5.2387E-08               STORAGE =           0.0000
       CONSTANT HEAD =           0.0000         CONSTANT HEAD =           0.0000
               WELLS =           0.0000                 WELLS =           0.0000
     HEAD DEP BOUNDS =       10660.1543       HEAD DEP BOUNDS =         666.2595

           TOTAL OUT =       10660.1543             TOTAL OUT =         666.2595

            IN - OUT =           0.7910              IN - OUT =       5.2795E-02

 PERCENT DISCREPANCY =           0.01     PERCENT DISCREPANCY =           0.01






         TIME SUMMARY AT END OF TIME STEP   15 IN STRESS PERIOD    2
                    SECONDS     MINUTES      HOURS       DAYS        YEARS
                    -----------------------------------------------------------
   TIME STEP LENGTH  86400.      1440.0      24.000      1.0000     2.73785E-03
 STRESS PERIOD TIME 1.29600E+06  21600.      360.00      15.000     4.10678E-02
         TOTAL TIME 1.38240E+06  23040.      384.00      16.000     4.38056E-02
1
 
 SOLVING FOR HEAD 

 OUTPUT CONTROL FOR STRESS PERIOD    2   TIME STEP   16
    SAVE HEAD FOR ALL LAYERS
    SAVE DRAWDOWN FOR ALL LAYERS
    SAVE BUDGET
    PRINT HEAD FOR ALL LAYERS
    PRINT BUDGET
 UBDSV1 SAVING "         STORAGE" ON UNIT  53 AT TIME STEP 16, STRESS PERIOD   2
 UBDSV2 SAVING "   CONSTANT HEAD" ON UNIT  53 AT TIME STEP 16, STRESS PERIOD   2
 UBDSV1 SAVING "FLOW RIGHT FACE " ON UNIT  53 AT TIME STEP 16, STRESS PERIOD   2
 UBDSV1 SAVING "FLOW FRONT FACE " ON UNIT  53 AT TIME STEP 16, STRESS PERIOD   2
 UBDSV1 SAVING "FLOW LOWER FACE " ON UNIT  53 AT TIME STEP 16, STRESS PERIOD   2
1
              HEAD IN LAYER   1 AT END OF TIME STEP  16 IN STRESS PERIOD    2
  ---------------------------------------------------------------------------

            1           2           3           4           5           6           7           8           9          10
 ........................................................................................................................
   1    9.997       8.887       7.776       6.666       5.555       4.445       3.335       2.224       1.114      3.3313E-03
   2    9.997       8.887       7.776       6.666       5.555       4.445       3.335       2.224       1.114      3.3313E-03
   3    9.997       8.887       7.776       6.666       5.555       4.445       3.335       2.224       1.114      3.3313E-03
   4    9.997       8.887       7.776       6.666       5.555       4.445       3.335       2.224       1.114      3.3313E-03
   5    9.997       8.887       7.776       6.666       5.555       4.445       3.335       2.224       1.114      3.3313E-03
   6    9.997       8.887       7.776       6.666       5.555       4.445       3.335       2.224       1.114      3.3313E-03
   7    9.997       8.887       7.776       6.666       5.555       4.445       3.335       2.224       1.114      3.3313E-03
   8    9.997       8.887       7.776       6.666       5.555       4.445       3.335       2.224       1.114      3.3313E-03
   9    9.997       8.887       7.776       6.666       5.555       4.445       3.335       2.224       1.114      3.3313E-03
  10    9.997       8.887       7.776       6.666       5.555       4.445       3.335       2.224       1.114      3.3313E-03
1
              HEAD IN LAYER   2 AT END OF TIME STEP  16 IN STRESS PERIOD    2
  ---------------------------------------------------------------------------

            1           2           3           4           5           6           7           8           9          10
 ........................................................................................................................
   1    9.997       8.887       7.776       6.666       5.555       4.445       3.335       2.224       1.114      3.3313E-03
   2    9.997       8.887       7.776       6.666       5.555       4.445       3.335       2.224       1.114      3.3313E-03
   3    9.997       8.887       7.776       6.666       5.555       4.445       3.335       2.224       1.114      3.3313E-03
   4    9.997       8.887       7.776       6.666       5.555       4.445       3.335       2.224       1.114      3.3313E-03
   5    9.997       8.887       7.776       6.666       5.555       4.445       3.335       2.224       1.114      3.3313E-03
   6    9.997       8.887       7.776       6.666       5.555       4.445       3.335       2.224       1.114      3.3313E-03
   7    9.997       8.887       7.776       6.666       5.555       4.445       3.335       2.224       1.114      3.3313E-03
   8    9.997       8.887       7.776       6.666       5.555       4.445       3.335       2.224       1.114      3.3313E-03
   9    9.997       8.887       7.776       6.666       5.555       4.445       3.335       2.224       1.114      3.3313E-03
  10    9.997       8.887       7.776       6.666       5.555       4.445       3.335       2.224       1.114      3.3313E-03
1
              HEAD IN LAYER   3 AT END OF TIME STEP  16 IN STRESS PERIOD    2
  ---------------------------------------------------------------------------

            1           2           3           4           5           6           7           8           9          10
 ........................................................................................................................
   1    9.997       8.887       7.776       6.666       5.555       4.445       3.335       2.224       1.114      3.3313E-03
   2    9.997       8.887       7.776       6.666       5.555       4.445       3.335       2.224       1.114      3.3313E-03
   3    9.997       8.887       7.776       6.666       5.555       4.445       3.335       2.224       1.114      3.3313E-03
   4    9.997       8.887       7.776       6.666       5.555       4.445       3.335       2.224       1.114      3.3313E-03
   5    9.997       8.887       7.776       6.666       5.555       4.445       3.335       2.224       1.114      3.3313E-03
   6    9.997       8.887       7.776       6.666       5.555       4.445       3.335       2.224       1.114      3.3313E-03
   7    9.997       8.887       7.776       6.666       5.555       4.445       3.335       2.224       1.114      3.3313E-03
   8    9.997       8.887       7.776       6.666       5.555       4.445       3.335       2.224       1.114      3.3313E-03
   9    9.997       8.887       7.776       6.666       5.555       4.445       3.335       2.224       1.114      3.3313E-03
  10    9.997       8.887       7.776       6.666       5.555       4.445       3.335       2.224       1.114      3.3313E-03
1
              HEAD IN LAYER   4 AT END OF TIME STEP  16 IN STRESS PERIOD    2
  ---------------------------------------------------------------------------

            1           2           3           4           5           6           7           8           9          10
 ........................................................................................................................
   1    9.997       8.887       7.776       6.666       5.555       4.445       3.335       2.224       1.114      3.3313E-03
   2    9.997       8.887       7.776       6.666       5.555       4.445       3.335       2.224       1.114      3.3313E-03
   3    9.997       8.887       7.776       6.666       5.555       4.445       3.335       2.224       1.114      3.3313E-03
   4    9.997       8.887       7.776       6.666       5.555       4.445       3.335       2.224       1.114      3.3313E-03
   5    9.997       8.887       7.776       6.666       5.555       4.445       3.335       2.224       1.114      3.3313E-03
   6    9.997       8.887       7.776       6.666       5.555       4.445       3.335       2.224       1.114      3.3313E-03
   7    9.997       8.887       7.776       6.666       5.555       4.445       3.335       2.224       1.114      3.3313E-03
   8    9.997       8.887       7.776       6.666       5.555       4.445       3.335       2.224       1.114      3.3313E-03
   9    9.997       8.887       7.776       6.666       5.555       4.445       3.335       2.224       1.114      3.3313E-03
  10    9.997       8.887       7.776       6.666       5.555       4.445       3.335       2.224       1.114      3.3313E-03

 HEAD WILL BE SAVED ON UNIT   51 AT END OF TIME STEP   16, STRESS PERIOD    2

 DRAWDOWN WILL BE SAVED ON UNIT   52 AT END OF TIME STEP   16, STRESS PERIOD    2
1
  VOLUMETRIC BUDGET FOR ENTIRE MODEL AT END OF TIME STEP   16, STRESS PERIOD   2
  ------------------------------------------------------------------------------

     CUMULATIVE VOLUMES      L**3       RATES FOR THIS TIME STEP      L**3/T
     ------------------                 ------------------------

           IN:                                      IN:
           ---                                      ---
             STORAGE =       1.0477E-08               STORAGE =           0.0000
       CONSTANT HEAD =           0.0000         CONSTANT HEAD =           0.0000
               WELLS =           0.0000                 WELLS =           0.0000
     HEAD DEP BOUNDS =       11327.2578       HEAD DEP BOUNDS =         666.3123

            TOTAL IN =       11327.2578              TOTAL IN =         666.3123

          OUT:                                     OUT:
          ----                                     ----
             STORAGE =       5.2387E-08               STORAGE =           0.0000
       CONSTANT HEAD =           0.0000         CONSTANT HEAD =           0.0000
               WELLS =           0.0000                 WELLS =           0.0000
     HEAD DEP BOUNDS =       11326.4141       HEAD DEP BOUNDS =         666.2595

           TOTAL OUT =       11326.4141             TOTAL OUT =         666.2595

            IN - OUT =           0.8438              IN - OUT =       5.2795E-02

 PERCENT DISCREPANCY =           0.01     PERCENT DISCREPANCY =           0.01






         TIME SUMMARY AT END OF TIME STEP   16 IN STRESS PERIOD    2
                    SECONDS     MINUTES      HOURS       DAYS        YEARS
                    -----------------------------------------------------------
   TIME STEP LENGTH  86400.      1440.0      24.000      1.0000     2.73785E-03
 STRESS PERIOD TIME 1.38240E+06  23040.      384.00      16.000     4.38056E-02
         TOTAL TIME 1.46880E+06  24480.      408.00      17.000     4.65435E-02
1
 
 SOLVING FOR HEAD 

 OUTPUT CONTROL FOR STRESS PERIOD    2   TIME STEP   17
    SAVE HEAD FOR ALL LAYERS
    SAVE DRAWDOWN FOR ALL LAYERS
    SAVE BUDGET
    PRINT HEAD FOR ALL LAYERS
    PRINT BUDGET
 UBDSV1 SAVING "         STORAGE" ON UNIT  53 AT TIME STEP 17, STRESS PERIOD   2
 UBDSV2 SAVING "   CONSTANT HEAD" ON UNIT  53 AT TIME STEP 17, STRESS PERIOD   2
 UBDSV1 SAVING "FLOW RIGHT FACE " ON UNIT  53 AT TIME STEP 17, STRESS PERIOD   2
 UBDSV1 SAVING "FLOW FRONT FACE " ON UNIT  53 AT TIME STEP 17, STRESS PERIOD   2
 UBDSV1 SAVING "FLOW LOWER FACE " ON UNIT  53 AT TIME STEP 17, STRESS PERIOD   2
1
              HEAD IN LAYER   1 AT END OF TIME STEP  17 IN STRESS PERIOD    2
  ---------------------------------------------------------------------------

            1           2           3           4           5           6           7           8           9          10
 ........................................................................................................................
   1    9.997       8.887       7.776       6.666       5.555       4.445       3.335       2.224       1.114      3.3313E-03
   2    9.997       8.887       7.776       6.666       5.555       4.445       3.335       2.224       1.114      3.3313E-03
   3    9.997       8.887       7.776       6.666       5.555       4.445       3.335       2.224       1.114      3.3313E-03
   4    9.997       8.887       7.776       6.666       5.555       4.445       3.335       2.224       1.114      3.3313E-03
   5    9.997       8.887       7.776       6.666       5.555       4.445       3.335       2.224       1.114      3.3313E-03
   6    9.997       8.887       7.776       6.666       5.555       4.445       3.335       2.224       1.114      3.3313E-03
   7    9.997       8.887       7.776       6.666       5.555       4.445       3.335       2.224       1.114      3.3313E-03
   8    9.997       8.887       7.776       6.666       5.555       4.445       3.335       2.224       1.114      3.3313E-03
   9    9.997       8.887       7.776       6.666       5.555       4.445       3.335       2.224       1.114      3.3313E-03
  10    9.997       8.887       7.776       6.666       5.555       4.445       3.335       2.224       1.114      3.3313E-03
1
              HEAD IN LAYER   2 AT END OF TIME STEP  17 IN STRESS PERIOD    2
  ---------------------------------------------------------------------------

            1           2           3           4           5           6           7           8           9          10
 ........................................................................................................................
   1    9.997       8.887       7.776       6.666       5.555       4.445       3.335       2.224       1.114      3.3313E-03
   2    9.997       8.887       7.776       6.666       5.555       4.445       3.335       2.224       1.114      3.3313E-03
   3    9.997       8.887       7.776       6.666       5.555       4.445       3.335       2.224       1.114      3.3313E-03
   4    9.997       8.887       7.776       6.666       5.555       4.445       3.335       2.224       1.114      3.3313E-03
   5    9.997       8.887       7.776       6.666       5.555       4.445       3.335       2.224       1.114      3.3313E-03
   6    9.997       8.887       7.776       6.666       5.555       4.445       3.335       2.224       1.114      3.3313E-03
   7    9.997       8.887       7.776       6.666       5.555       4.445       3.335       2.224       1.114      3.3313E-03
   8    9.997       8.887       7.776       6.666       5.555       4.445       3.335       2.224       1.114      3.3313E-03
   9    9.997       8.887       7.776       6.666       5.555       4.445       3.335       2.224       1.114      3.3313E-03
  10    9.997       8.887       7.776       6.666       5.555       4.445       3.335       2.224       1.114      3.3313E-03
1
              HEAD IN LAYER   3 AT END OF TIME STEP  17 IN STRESS PERIOD    2
  ---------------------------------------------------------------------------

            1           2           3           4           5           6           7           8           9          10
 ........................................................................................................................
   1    9.997       8.887       7.776       6.666       5.555       4.445       3.335       2.224       1.114      3.3313E-03
   2    9.997       8.887       7.776       6.666       5.555       4.445       3.335       2.224       1.114      3.3313E-03
   3    9.997       8.887       7.776       6.666       5.555       4.445       3.335       2.224       1.114      3.3313E-03
   4    9.997       8.887       7.776       6.666       5.555       4.445       3.335       2.224       1.114      3.3313E-03
   5    9.997       8.887       7.776       6.666       5.555       4.445       3.335       2.224       1.114      3.3313E-03
   6    9.997       8.887       7.776       6.666       5.555       4.445       3.335       2.224       1.114      3.3313E-03
   7    9.997       8.887       7.776       6.666       5.555       4.445       3.335       2.224       1.114      3.3313E-03
   8    9.997       8.887       7.776       6.666       5.555       4.445       3.335       2.224       1.114      3.3313E-03
   9    9.997       8.887       7.776       6.666       5.555       4.445       3.335       2.224       1.114      3.3313E-03
  10    9.997       8.887       7.776       6.666       5.555       4.445       3.335       2.224       1.114      3.3313E-03
1
              HEAD IN LAYER   4 AT END OF TIME STEP  17 IN STRESS PERIOD    2
  ---------------------------------------------------------------------------

            1           2           3           4           5           6           7           8           9          10
 ........................................................................................................................
   1    9.997       8.887       7.776       6.666       5.555       4.445       3.335       2.224       1.114      3.3313E-03
   2    9.997       8.887       7.776       6.666       5.555       4.445       3.335       2.224       1.114      3.3313E-03
   3    9.997       8.887       7.776       6.666       5.555       4.445       3.335       2.224       1.114      3.3313E-03
   4    9.997       8.887       7.776       6.666       5.555       4.445       3.335       2.224       1.114      3.3313E-03
   5    9.997       8.887       7.776       6.666       5.555       4.445       3.335       2.224       1.114      3.3313E-03
   6    9.997       8.887       7.776       6.666       5.555       4.445       3.335       2.224       1.114      3.3313E-03
   7    9.997       8.887       7.776       6.666       5.555       4.445       3.335       2.224       1.114      3.3313E-03
   8    9.997       8.887       7.776       6.666       5.555       4.445       3.335       2.224       1.114      3.3313E-03
   9    9.997       8.887       7.776       6.666       5.555       4.445       3.335       2.224       1.114      3.3313E-03
  10    9.997       8.887       7.776       6.666       5.555       4.445       3.335       2.224       1.114      3.3313E-03

 HEAD WILL BE SAVED ON UNIT   51 AT END OF TIME STEP   17, STRESS PERIOD    2

 DRAWDOWN WILL BE SAVED ON UNIT   52 AT END OF TIME STEP   17, STRESS PERIOD    2
1
  VOLUMETRIC BUDGET FOR ENTIRE MODEL AT END OF TIME STEP   17, STRESS PERIOD   2
  ------------------------------------------------------------------------------

     CUMULATIVE VOLUMES      L**3       RATES FOR THIS TIME STEP      L**3/T
     ------------------                 ------------------------

           IN:                                      IN:
           ---                                      ---
             STORAGE =       1.0477E-08               STORAGE =           0.0000
       CONSTANT HEAD =           0.0000         CONSTANT HEAD =           0.0000
               WELLS =           0.0000                 WELLS =           0.0000
     HEAD DEP BOUNDS =       11993.5703       HEAD DEP BOUNDS =         666.3123

            TOTAL IN =       11993.5703              TOTAL IN =         666.3123

          OUT:                                     OUT:
          ----                                     ----
             STORAGE =       5.2387E-08               STORAGE =           0.0000
       CONSTANT HEAD =           0.0000         CONSTANT HEAD =           0.0000
               WELLS =           0.0000                 WELLS =           0.0000
     HEAD DEP BOUNDS =       11992.6738       HEAD DEP BOUNDS =         666.2595

           TOTAL OUT =       11992.6738             TOTAL OUT =         666.2595

            IN - OUT =           0.8965              IN - OUT =       5.2795E-02

 PERCENT DISCREPANCY =           0.01     PERCENT DISCREPANCY =           0.01






         TIME SUMMARY AT END OF TIME STEP   17 IN STRESS PERIOD    2
                    SECONDS     MINUTES      HOURS       DAYS        YEARS
                    -----------------------------------------------------------
   TIME STEP LENGTH  86400.      1440.0      24.000      1.0000     2.73785E-03
 STRESS PERIOD TIME 1.46880E+06  24480.      408.00      17.000     4.65435E-02
         TOTAL TIME 1.55520E+06  25920.      432.00      18.000     4.92813E-02
1
 
 SOLVING FOR HEAD 

 OUTPUT CONTROL FOR STRESS PERIOD    2   TIME STEP   18
    SAVE HEAD FOR ALL LAYERS
    SAVE DRAWDOWN FOR ALL LAYERS
    SAVE BUDGET
    PRINT HEAD FOR ALL LAYERS
    PRINT BUDGET
 UBDSV1 SAVING "         STORAGE" ON UNIT  53 AT TIME STEP 18, STRESS PERIOD   2
 UBDSV2 SAVING "   CONSTANT HEAD" ON UNIT  53 AT TIME STEP 18, STRESS PERIOD   2
 UBDSV1 SAVING "FLOW RIGHT FACE " ON UNIT  53 AT TIME STEP 18, STRESS PERIOD   2
 UBDSV1 SAVING "FLOW FRONT FACE " ON UNIT  53 AT TIME STEP 18, STRESS PERIOD   2
 UBDSV1 SAVING "FLOW LOWER FACE " ON UNIT  53 AT TIME STEP 18, STRESS PERIOD   2
1
              HEAD IN LAYER   1 AT END OF TIME STEP  18 IN STRESS PERIOD    2
  ---------------------------------------------------------------------------

            1           2           3           4           5           6           7           8           9          10
 ........................................................................................................................
   1    9.997       8.887       7.776       6.666       5.555       4.445       3.335       2.224       1.114      3.3313E-03
   2    9.997       8.887       7.776       6.666       5.555       4.445       3.335       2.224       1.114      3.3313E-03
   3    9.997       8.887       7.776       6.666       5.555       4.445       3.335       2.224       1.114      3.3313E-03
   4    9.997       8.887       7.776       6.666       5.555       4.445       3.335       2.224       1.114      3.3313E-03
   5    9.997       8.887       7.776       6.666       5.555       4.445       3.335       2.224       1.114      3.3313E-03
   6    9.997       8.887       7.776       6.666       5.555       4.445       3.335       2.224       1.114      3.3313E-03
   7    9.997       8.887       7.776       6.666       5.555       4.445       3.335       2.224       1.114      3.3313E-03
   8    9.997       8.887       7.776       6.666       5.555       4.445       3.335       2.224       1.114      3.3313E-03
   9    9.997       8.887       7.776       6.666       5.555       4.445       3.335       2.224       1.114      3.3313E-03
  10    9.997       8.887       7.776       6.666       5.555       4.445       3.335       2.224       1.114      3.3313E-03
1
              HEAD IN LAYER   2 AT END OF TIME STEP  18 IN STRESS PERIOD    2
  ---------------------------------------------------------------------------

            1           2           3           4           5           6           7           8           9          10
 ........................................................................................................................
   1    9.997       8.887       7.776       6.666       5.555       4.445       3.335       2.224       1.114      3.3313E-03
   2    9.997       8.887       7.776       6.666       5.555       4.445       3.335       2.224       1.114      3.3313E-03
   3    9.997       8.887       7.776       6.666       5.555       4.445       3.335       2.224       1.114      3.3313E-03
   4    9.997       8.887       7.776       6.666       5.555       4.445       3.335       2.224       1.114      3.3313E-03
   5    9.997       8.887       7.776       6.666       5.555       4.445       3.335       2.224       1.114      3.3313E-03
   6    9.997       8.887       7.776       6.666       5.555       4.445       3.335       2.224       1.114      3.3313E-03
   7    9.997       8.887       7.776       6.666       5.555       4.445       3.335       2.224       1.114      3.3313E-03
   8    9.997       8.887       7.776       6.666       5.555       4.445       3.335       2.224       1.114      3.3313E-03
   9    9.997       8.887       7.776       6.666       5.555       4.445       3.335       2.224       1.114      3.3313E-03
  10    9.997       8.887       7.776       6.666       5.555       4.445       3.335       2.224       1.114      3.3313E-03
1
              HEAD IN LAYER   3 AT END OF TIME STEP  18 IN STRESS PERIOD    2
  ---------------------------------------------------------------------------

            1           2           3           4           5           6           7           8           9          10
 ........................................................................................................................
   1    9.997       8.887       7.776       6.666       5.555       4.445       3.335       2.224       1.114      3.3313E-03
   2    9.997       8.887       7.776       6.666       5.555       4.445       3.335       2.224       1.114      3.3313E-03
   3    9.997       8.887       7.776       6.666       5.555       4.445       3.335       2.224       1.114      3.3313E-03
   4    9.997       8.887       7.776       6.666       5.555       4.445       3.335       2.224       1.114      3.3313E-03
   5    9.997       8.887       7.776       6.666       5.555       4.445       3.335       2.224       1.114      3.3313E-03
   6    9.997       8.887       7.776       6.666       5.555       4.445       3.335       2.224       1.114      3.3313E-03
   7    9.997       8.887       7.776       6.666       5.555       4.445       3.335       2.224       1.114      3.3313E-03
   8    9.997       8.887       7.776       6.666       5.555       4.445       3.335       2.224       1.114      3.3313E-03
   9    9.997       8.887       7.776       6.666       5.555       4.445       3.335       2.224       1.114      3.3313E-03
  10    9.997       8.887       7.776       6.666       5.555       4.445       3.335       2.224       1.114      3.3313E-03
1
              HEAD IN LAYER   4 AT END OF TIME STEP  18 IN STRESS PERIOD    2
  ---------------------------------------------------------------------------

            1           2           3           4           5           6           7           8           9          10
 ........................................................................................................................
   1    9.997       8.887       7.776       6.666       5.555       4.445       3.335       2.224       1.114      3.3313E-03
   2    9.997       8.887       7.776       6.666       5.555       4.445       3.335       2.224       1.114      3.3313E-03
   3    9.997       8.887       7.776       6.666       5.555       4.445       3.335       2.224       1.114      3.3313E-03
   4    9.997       8.887       7.776       6.666       5.555       4.445       3.335       2.224       1.114      3.3313E-03
   5    9.997       8.887       7.776       6.666       5.555       4.445       3.335       2.224       1.114      3.3313E-03
   6    9.997       8.887       7.776       6.666       5.555       4.445       3.335       2.224       1.114      3.3313E-03
   7    9.997       8.887       7.776       6.666       5.555       4.445       3.335       2.224       1.114      3.3313E-03
   8    9.997       8.887       7.776       6.666       5.555       4.445       3.335       2.224       1.114      3.3313E-03
   9    9.997       8.887       7.776       6.666       5.555       4.445       3.335       2.224       1.114      3.3313E-03
  10    9.997       8.887       7.776       6.666       5.555       4.445       3.335       2.224       1.114      3.3313E-03

 HEAD WILL BE SAVED ON UNIT   51 AT END OF TIME STEP   18, STRESS PERIOD    2

 DRAWDOWN WILL BE SAVED ON UNIT   52 AT END OF TIME STEP   18, STRESS PERIOD    2
1
  VOLUMETRIC BUDGET FOR ENTIRE MODEL AT END OF TIME STEP   18, STRESS PERIOD   2
  ------------------------------------------------------------------------------

     CUMULATIVE VOLUMES      L**3       RATES FOR THIS TIME STEP      L**3/T
     ------------------                 ------------------------

           IN:                                      IN:
           ---                                      ---
             STORAGE =       1.0477E-08               STORAGE =           0.0000
       CONSTANT HEAD =           0.0000         CONSTANT HEAD =           0.0000
               WELLS =           0.0000                 WELLS =           0.0000
     HEAD DEP BOUNDS =       12659.8828       HEAD DEP BOUNDS =         666.3123

            TOTAL IN =       12659.8828              TOTAL IN =         666.3123

          OUT:                                     OUT:
          ----                                     ----
             STORAGE =       5.2387E-08               STORAGE =           0.0000
       CONSTANT HEAD =           0.0000         CONSTANT HEAD =           0.0000
               WELLS =           0.0000                 WELLS =           0.0000
     HEAD DEP BOUNDS =       12658.9336       HEAD DEP BOUNDS =         666.2595

           TOTAL OUT =       12658.9336             TOTAL OUT =         666.2595

            IN - OUT =           0.9492              IN - OUT =       5.2795E-02

 PERCENT DISCREPANCY =           0.01     PERCENT DISCREPANCY =           0.01






         TIME SUMMARY AT END OF TIME STEP   18 IN STRESS PERIOD    2
                    SECONDS     MINUTES      HOURS       DAYS        YEARS
                    -----------------------------------------------------------
   TIME STEP LENGTH  86400.      1440.0      24.000      1.0000     2.73785E-03
 STRESS PERIOD TIME 1.55520E+06  25920.      432.00      18.000     4.92813E-02
         TOTAL TIME 1.64160E+06  27360.      456.00      19.000     5.20192E-02
1
 
 SOLVING FOR HEAD 

 OUTPUT CONTROL FOR STRESS PERIOD    2   TIME STEP   19
    SAVE HEAD FOR ALL LAYERS
    SAVE DRAWDOWN FOR ALL LAYERS
    SAVE BUDGET
    PRINT HEAD FOR ALL LAYERS
    PRINT BUDGET
 UBDSV1 SAVING "         STORAGE" ON UNIT  53 AT TIME STEP 19, STRESS PERIOD   2
 UBDSV2 SAVING "   CONSTANT HEAD" ON UNIT  53 AT TIME STEP 19, STRESS PERIOD   2
 UBDSV1 SAVING "FLOW RIGHT FACE " ON UNIT  53 AT TIME STEP 19, STRESS PERIOD   2
 UBDSV1 SAVING "FLOW FRONT FACE " ON UNIT  53 AT TIME STEP 19, STRESS PERIOD   2
 UBDSV1 SAVING "FLOW LOWER FACE " ON UNIT  53 AT TIME STEP 19, STRESS PERIOD   2
1
              HEAD IN LAYER   1 AT END OF TIME STEP  19 IN STRESS PERIOD    2
  ---------------------------------------------------------------------------

            1           2           3           4           5           6           7           8           9          10
 ........................................................................................................................
   1    9.997       8.887       7.776       6.666       5.555       4.445       3.335       2.224       1.114      3.3313E-03
   2    9.997       8.887       7.776       6.666       5.555       4.445       3.335       2.224       1.114      3.3313E-03
   3    9.997       8.887       7.776       6.666       5.555       4.445       3.335       2.224       1.114      3.3313E-03
   4    9.997       8.887       7.776       6.666       5.555       4.445       3.335       2.224       1.114      3.3313E-03
   5    9.997       8.887       7.776       6.666       5.555       4.445       3.335       2.224       1.114      3.3313E-03
   6    9.997       8.887       7.776       6.666       5.555       4.445       3.335       2.224       1.114      3.3313E-03
   7    9.997       8.887       7.776       6.666       5.555       4.445       3.335       2.224       1.114      3.3313E-03
   8    9.997       8.887       7.776       6.666       5.555       4.445       3.335       2.224       1.114      3.3313E-03
   9    9.997       8.887       7.776       6.666       5.555       4.445       3.335       2.224       1.114      3.3313E-03
  10    9.997       8.887       7.776       6.666       5.555       4.445       3.335       2.224       1.114      3.3313E-03
1
              HEAD IN LAYER   2 AT END OF TIME STEP  19 IN STRESS PERIOD    2
  ---------------------------------------------------------------------------

            1           2           3           4           5           6           7           8           9          10
 ........................................................................................................................
   1    9.997       8.887       7.776       6.666       5.555       4.445       3.335       2.224       1.114      3.3313E-03
   2    9.997       8.887       7.776       6.666       5.555       4.445       3.335       2.224       1.114      3.3313E-03
   3    9.997       8.887       7.776       6.666       5.555       4.445       3.335       2.224       1.114      3.3313E-03
   4    9.997       8.887       7.776       6.666       5.555       4.445       3.335       2.224       1.114      3.3313E-03
   5    9.997       8.887       7.776       6.666       5.555       4.445       3.335       2.224       1.114      3.3313E-03
   6    9.997       8.887       7.776       6.666       5.555       4.445       3.335       2.224       1.114      3.3313E-03
   7    9.997       8.887       7.776       6.666       5.555       4.445       3.335       2.224       1.114      3.3313E-03
   8    9.997       8.887       7.776       6.666       5.555       4.445       3.335       2.224       1.114      3.3313E-03
   9    9.997       8.887       7.776       6.666       5.555       4.445       3.335       2.224       1.114      3.3313E-03
  10    9.997       8.887       7.776       6.666       5.555       4.445       3.335       2.224       1.114      3.3313E-03
1
              HEAD IN LAYER   3 AT END OF TIME STEP  19 IN STRESS PERIOD    2
  ---------------------------------------------------------------------------

            1           2           3           4           5           6           7           8           9          10
 ........................................................................................................................
   1    9.997       8.887       7.776       6.666       5.555       4.445       3.335       2.224       1.114      3.3313E-03
   2    9.997       8.887       7.776       6.666       5.555       4.445       3.335       2.224       1.114      3.3313E-03
   3    9.997       8.887       7.776       6.666       5.555       4.445       3.335       2.224       1.114      3.3313E-03
   4    9.997       8.887       7.776       6.666       5.555       4.445       3.335       2.224       1.114      3.3313E-03
   5    9.997       8.887       7.776       6.666       5.555       4.445       3.335       2.224       1.114      3.3313E-03
   6    9.997       8.887       7.776       6.666       5.555       4.445       3.335       2.224       1.114      3.3313E-03
   7    9.997       8.887       7.776       6.666       5.555       4.445       3.335       2.224       1.114      3.3313E-03
   8    9.997       8.887       7.776       6.666       5.555       4.445       3.335       2.224       1.114      3.3313E-03
   9    9.997       8.887       7.776       6.666       5.555       4.445       3.335       2.224       1.114      3.3313E-03
  10    9.997       8.887       7.776       6.666       5.555       4.445       3.335       2.224       1.114      3.3313E-03
1
              HEAD IN LAYER   4 AT END OF TIME STEP  19 IN STRESS PERIOD    2
  ---------------------------------------------------------------------------

            1           2           3           4           5           6           7           8           9          10
 ........................................................................................................................
   1    9.997       8.887       7.776       6.666       5.555       4.445       3.335       2.224       1.114      3.3313E-03
   2    9.997       8.887       7.776       6.666       5.555       4.445       3.335       2.224       1.114      3.3313E-03
   3    9.997       8.887       7.776       6.666       5.555       4.445       3.335       2.224       1.114      3.3313E-03
   4    9.997       8.887       7.776       6.666       5.555       4.445       3.335       2.224       1.114      3.3313E-03
   5    9.997       8.887       7.776       6.666       5.555       4.445       3.335       2.224       1.114      3.3313E-03
   6    9.997       8.887       7.776       6.666       5.555       4.445       3.335       2.224       1.114      3.3313E-03
   7    9.997       8.887       7.776       6.666       5.555       4.445       3.335       2.224       1.114      3.3313E-03
   8    9.997       8.887       7.776       6.666       5.555       4.445       3.335       2.224       1.114      3.3313E-03
   9    9.997       8.887       7.776       6.666       5.555       4.445       3.335       2.224       1.114      3.3313E-03
  10    9.997       8.887       7.776       6.666       5.555       4.445       3.335       2.224       1.114      3.3313E-03

 HEAD WILL BE SAVED ON UNIT   51 AT END OF TIME STEP   19, STRESS PERIOD    2

 DRAWDOWN WILL BE SAVED ON UNIT   52 AT END OF TIME STEP   19, STRESS PERIOD    2
1
  VOLUMETRIC BUDGET FOR ENTIRE MODEL AT END OF TIME STEP   19, STRESS PERIOD   2
  ------------------------------------------------------------------------------

     CUMULATIVE VOLUMES      L**3       RATES FOR THIS TIME STEP      L**3/T
     ------------------                 ------------------------

           IN:                                      IN:
           ---                                      ---
             STORAGE =       1.0477E-08               STORAGE =           0.0000
       CONSTANT HEAD =           0.0000         CONSTANT HEAD =           0.0000
               WELLS =           0.0000                 WELLS =           0.0000
     HEAD DEP BOUNDS =       13326.1953       HEAD DEP BOUNDS =         666.3123

            TOTAL IN =       13326.1953              TOTAL IN =         666.3123

          OUT:                                     OUT:
          ----                                     ----
             STORAGE =       5.2387E-08               STORAGE =           0.0000
       CONSTANT HEAD =           0.0000         CONSTANT HEAD =           0.0000
               WELLS =           0.0000                 WELLS =           0.0000
     HEAD DEP BOUNDS =       13325.1934       HEAD DEP BOUNDS =         666.2595

           TOTAL OUT =       13325.1934             TOTAL OUT =         666.2595

            IN - OUT =           1.0020              IN - OUT =       5.2795E-02

 PERCENT DISCREPANCY =           0.01     PERCENT DISCREPANCY =           0.01






         TIME SUMMARY AT END OF TIME STEP   19 IN STRESS PERIOD    2
                    SECONDS     MINUTES      HOURS       DAYS        YEARS
                    -----------------------------------------------------------
   TIME STEP LENGTH  86400.      1440.0      24.000      1.0000     2.73785E-03
 STRESS PERIOD TIME 1.64160E+06  27360.      456.00      19.000     5.20192E-02
         TOTAL TIME 1.72800E+06  28800.      480.00      20.000     5.47570E-02
1
 
 SOLVING FOR HEAD 

 OUTPUT CONTROL FOR STRESS PERIOD    2   TIME STEP   20
    SAVE HEAD FOR ALL LAYERS
    SAVE DRAWDOWN FOR ALL LAYERS
    SAVE BUDGET
    PRINT HEAD FOR ALL LAYERS
    PRINT BUDGET
 UBDSV1 SAVING "         STORAGE" ON UNIT  53 AT TIME STEP 20, STRESS PERIOD   2
 UBDSV2 SAVING "   CONSTANT HEAD" ON UNIT  53 AT TIME STEP 20, STRESS PERIOD   2
 UBDSV1 SAVING "FLOW RIGHT FACE " ON UNIT  53 AT TIME STEP 20, STRESS PERIOD   2
 UBDSV1 SAVING "FLOW FRONT FACE " ON UNIT  53 AT TIME STEP 20, STRESS PERIOD   2
 UBDSV1 SAVING "FLOW LOWER FACE " ON UNIT  53 AT TIME STEP 20, STRESS PERIOD   2
1
              HEAD IN LAYER   1 AT END OF TIME STEP  20 IN STRESS PERIOD    2
  ---------------------------------------------------------------------------

            1           2           3           4           5           6           7           8           9          10
 ........................................................................................................................
   1    9.997       8.887       7.776       6.666       5.555       4.445       3.335       2.224       1.114      3.3313E-03
   2    9.997       8.887       7.776       6.666       5.555       4.445       3.335       2.224       1.114      3.3313E-03
   3    9.997       8.887       7.776       6.666       5.555       4.445       3.335       2.224       1.114      3.3313E-03
   4    9.997       8.887       7.776       6.666       5.555       4.445       3.335       2.224       1.114      3.3313E-03
   5    9.997       8.887       7.776       6.666       5.555       4.445       3.335       2.224       1.114      3.3313E-03
   6    9.997       8.887       7.776       6.666       5.555       4.445       3.335       2.224       1.114      3.3313E-03
   7    9.997       8.887       7.776       6.666       5.555       4.445       3.335       2.224       1.114      3.3313E-03
   8    9.997       8.887       7.776       6.666       5.555       4.445       3.335       2.224       1.114      3.3313E-03
   9    9.997       8.887       7.776       6.666       5.555       4.445       3.335       2.224       1.114      3.3313E-03
  10    9.997       8.887       7.776       6.666       5.555       4.445       3.335       2.224       1.114      3.3313E-03
1
              HEAD IN LAYER   2 AT END OF TIME STEP  20 IN STRESS PERIOD    2
  ---------------------------------------------------------------------------

            1           2           3           4           5           6           7           8           9          10
 ........................................................................................................................
   1    9.997       8.887       7.776       6.666       5.555       4.445       3.335       2.224       1.114      3.3313E-03
   2    9.997       8.887       7.776       6.666       5.555       4.445       3.335       2.224       1.114      3.3313E-03
   3    9.997       8.887       7.776       6.666       5.555       4.445       3.335       2.224       1.114      3.3313E-03
   4    9.997       8.887       7.776       6.666       5.555       4.445       3.335       2.224       1.114      3.3313E-03
   5    9.997       8.887       7.776       6.666       5.555       4.445       3.335       2.224       1.114      3.3313E-03
   6    9.997       8.887       7.776       6.666       5.555       4.445       3.335       2.224       1.114      3.3313E-03
   7    9.997       8.887       7.776       6.666       5.555       4.445       3.335       2.224       1.114      3.3313E-03
   8    9.997       8.887       7.776       6.666       5.555       4.445       3.335       2.224       1.114      3.3313E-03
   9    9.997       8.887       7.776       6.666       5.555       4.445       3.335       2.224       1.114      3.3313E-03
  10    9.997       8.887       7.776       6.666       5.555       4.445       3.335       2.224       1.114      3.3313E-03
1
              HEAD IN LAYER   3 AT END OF TIME STEP  20 IN STRESS PERIOD    2
  ---------------------------------------------------------------------------

            1           2           3           4           5           6           7           8           9          10
 ........................................................................................................................
   1    9.997       8.887       7.776       6.666       5.555       4.445       3.335       2.224       1.114      3.3313E-03
   2    9.997       8.887       7.776       6.666       5.555       4.445       3.335       2.224       1.114      3.3313E-03
   3    9.997       8.887       7.776       6.666       5.555       4.445       3.335       2.224       1.114      3.3313E-03
   4    9.997       8.887       7.776       6.666       5.555       4.445       3.335       2.224       1.114      3.3313E-03
   5    9.997       8.887       7.776       6.666       5.555       4.445       3.335       2.224       1.114      3.3313E-03
   6    9.997       8.887       7.776       6.666       5.555       4.445       3.335       2.224       1.114      3.3313E-03
   7    9.997       8.887       7.776       6.666       5.555       4.445       3.335       2.224       1.114      3.3313E-03
   8    9.997       8.887       7.776       6.666       5.555       4.445       3.335       2.224       1.114      3.3313E-03
   9    9.997       8.887       7.776       6.666       5.555       4.445       3.335       2.224       1.114      3.3313E-03
  10    9.997       8.887       7.776       6.666       5.555       4.445       3.335       2.224       1.114      3.3313E-03
1
              HEAD IN LAYER   4 AT END OF TIME STEP  20 IN STRESS PERIOD    2
  ---------------------------------------------------------------------------

            1           2           3           4           5           6           7           8           9          10
 ........................................................................................................................
   1    9.997       8.887       7.776       6.666       5.555       4.445       3.335       2.224       1.114      3.3313E-03
   2    9.997       8.887       7.776       6.666       5.555       4.445       3.335       2.224       1.114      3.3313E-03
   3    9.997       8.887       7.776       6.666       5.555       4.445       3.335       2.224       1.114      3.3313E-03
   4    9.997       8.887       7.776       6.666       5.555       4.445       3.335       2.224       1.114      3.3313E-03
   5    9.997       8.887       7.776       6.666       5.555       4.445       3.335       2.224       1.114      3.3313E-03
   6    9.997       8.887       7.776       6.666       5.555       4.445       3.335       2.224       1.114      3.3313E-03
   7    9.997       8.887       7.776       6.666       5.555       4.445       3.335       2.224       1.114      3.3313E-03
   8    9.997       8.887       7.776       6.666       5.555       4.445       3.335       2.224       1.114      3.3313E-03
   9    9.997       8.887       7.776       6.666       5.555       4.445       3.335       2.224       1.114      3.3313E-03
  10    9.997       8.887       7.776       6.666       5.555       4.445       3.335       2.224       1.114      3.3313E-03

 HEAD WILL BE SAVED ON UNIT   51 AT END OF TIME STEP   20, STRESS PERIOD    2

 DRAWDOWN WILL BE SAVED ON UNIT   52 AT END OF TIME STEP   20, STRESS PERIOD    2
1
  VOLUMETRIC BUDGET FOR ENTIRE MODEL AT END OF TIME STEP   20, STRESS PERIOD   2
  ------------------------------------------------------------------------------

     CUMULATIVE VOLUMES      L**3       RATES FOR THIS TIME STEP      L**3/T
     ------------------                 ------------------------

           IN:                                      IN:
           ---                                      ---
             STORAGE =       1.0477E-08               STORAGE =           0.0000
       CONSTANT HEAD =           0.0000         CONSTANT HEAD =           0.0000
               WELLS =           0.0000                 WELLS =           0.0000
     HEAD DEP BOUNDS =       13992.5078       HEAD DEP BOUNDS =         666.3123

            TOTAL IN =       13992.5078              TOTAL IN =         666.3123

          OUT:                                     OUT:
          ----                                     ----
             STORAGE =       5.2387E-08               STORAGE =           0.0000
       CONSTANT HEAD =           0.0000         CONSTANT HEAD =           0.0000
               WELLS =           0.0000                 WELLS =           0.0000
     HEAD DEP BOUNDS =       13991.4531       HEAD DEP BOUNDS =         666.2595

           TOTAL OUT =       13991.4531             TOTAL OUT =         666.2595

            IN - OUT =           1.0547              IN - OUT =       5.2795E-02

 PERCENT DISCREPANCY =           0.01     PERCENT DISCREPANCY =           0.01






         TIME SUMMARY AT END OF TIME STEP   20 IN STRESS PERIOD    2
                    SECONDS     MINUTES      HOURS       DAYS        YEARS
                    -----------------------------------------------------------
   TIME STEP LENGTH  86400.      1440.0      24.000      1.0000     2.73785E-03
 STRESS PERIOD TIME 1.72800E+06  28800.      480.00      20.000     5.47570E-02
         TOTAL TIME 1.81440E+06  30240.      504.00      21.000     5.74949E-02
1
 
 SOLVING FOR HEAD 

 OUTPUT CONTROL FOR STRESS PERIOD    2   TIME STEP   21
    SAVE HEAD FOR ALL LAYERS
    SAVE DRAWDOWN FOR ALL LAYERS
    SAVE BUDGET
    PRINT HEAD FOR ALL LAYERS
    PRINT BUDGET
 UBDSV1 SAVING "         STORAGE" ON UNIT  53 AT TIME STEP 21, STRESS PERIOD   2
 UBDSV2 SAVING "   CONSTANT HEAD" ON UNIT  53 AT TIME STEP 21, STRESS PERIOD   2
 UBDSV1 SAVING "FLOW RIGHT FACE " ON UNIT  53 AT TIME STEP 21, STRESS PERIOD   2
 UBDSV1 SAVING "FLOW FRONT FACE " ON UNIT  53 AT TIME STEP 21, STRESS PERIOD   2
 UBDSV1 SAVING "FLOW LOWER FACE " ON UNIT  53 AT TIME STEP 21, STRESS PERIOD   2
1
              HEAD IN LAYER   1 AT END OF TIME STEP  21 IN STRESS PERIOD    2
  ---------------------------------------------------------------------------

            1           2           3           4           5           6           7           8           9          10
 ........................................................................................................................
   1    9.997       8.887       7.776       6.666       5.555       4.445       3.335       2.224       1.114      3.3313E-03
   2    9.997       8.887       7.776       6.666       5.555       4.445       3.335       2.224       1.114      3.3313E-03
   3    9.997       8.887       7.776       6.666       5.555       4.445       3.335       2.224       1.114      3.3313E-03
   4    9.997       8.887       7.776       6.666       5.555       4.445       3.335       2.224       1.114      3.3313E-03
   5    9.997       8.887       7.776       6.666       5.555       4.445       3.335       2.224       1.114      3.3313E-03
   6    9.997       8.887       7.776       6.666       5.555       4.445       3.335       2.224       1.114      3.3313E-03
   7    9.997       8.887       7.776       6.666       5.555       4.445       3.335       2.224       1.114      3.3313E-03
   8    9.997       8.887       7.776       6.666       5.555       4.445       3.335       2.224       1.114      3.3313E-03
   9    9.997       8.887       7.776       6.666       5.555       4.445       3.335       2.224       1.114      3.3313E-03
  10    9.997       8.887       7.776       6.666       5.555       4.445       3.335       2.224       1.114      3.3313E-03
1
              HEAD IN LAYER   2 AT END OF TIME STEP  21 IN STRESS PERIOD    2
  ---------------------------------------------------------------------------

            1           2           3           4           5           6           7           8           9          10
 ........................................................................................................................
   1    9.997       8.887       7.776       6.666       5.555       4.445       3.335       2.224       1.114      3.3313E-03
   2    9.997       8.887       7.776       6.666       5.555       4.445       3.335       2.224       1.114      3.3313E-03
   3    9.997       8.887       7.776       6.666       5.555       4.445       3.335       2.224       1.114      3.3313E-03
   4    9.997       8.887       7.776       6.666       5.555       4.445       3.335       2.224       1.114      3.3313E-03
   5    9.997       8.887       7.776       6.666       5.555       4.445       3.335       2.224       1.114      3.3313E-03
   6    9.997       8.887       7.776       6.666       5.555       4.445       3.335       2.224       1.114      3.3313E-03
   7    9.997       8.887       7.776       6.666       5.555       4.445       3.335       2.224       1.114      3.3313E-03
   8    9.997       8.887       7.776       6.666       5.555       4.445       3.335       2.224       1.114      3.3313E-03
   9    9.997       8.887       7.776       6.666       5.555       4.445       3.335       2.224       1.114      3.3313E-03
  10    9.997       8.887       7.776       6.666       5.555       4.445       3.335       2.224       1.114      3.3313E-03
1
              HEAD IN LAYER   3 AT END OF TIME STEP  21 IN STRESS PERIOD    2
  ---------------------------------------------------------------------------

            1           2           3           4           5           6           7           8           9          10
 ........................................................................................................................
   1    9.997       8.887       7.776       6.666       5.555       4.445       3.335       2.224       1.114      3.3313E-03
   2    9.997       8.887       7.776       6.666       5.555       4.445       3.335       2.224       1.114      3.3313E-03
   3    9.997       8.887       7.776       6.666       5.555       4.445       3.335       2.224       1.114      3.3313E-03
   4    9.997       8.887       7.776       6.666       5.555       4.445       3.335       2.224       1.114      3.3313E-03
   5    9.997       8.887       7.776       6.666       5.555       4.445       3.335       2.224       1.114      3.3313E-03
   6    9.997       8.887       7.776       6.666       5.555       4.445       3.335       2.224       1.114      3.3313E-03
   7    9.997       8.887       7.776       6.666       5.555       4.445       3.335       2.224       1.114      3.3313E-03
   8    9.997       8.887       7.776       6.666       5.555       4.445       3.335       2.224       1.114      3.3313E-03
   9    9.997       8.887       7.776       6.666       5.555       4.445       3.335       2.224       1.114      3.3313E-03
  10    9.997       8.887       7.776       6.666       5.555       4.445       3.335       2.224       1.114      3.3313E-03
1
              HEAD IN LAYER   4 AT END OF TIME STEP  21 IN STRESS PERIOD    2
  ---------------------------------------------------------------------------

            1           2           3           4           5           6           7           8           9          10
 ........................................................................................................................
   1    9.997       8.887       7.776       6.666       5.555       4.445       3.335       2.224       1.114      3.3313E-03
   2    9.997       8.887       7.776       6.666       5.555       4.445       3.335       2.224       1.114      3.3313E-03
   3    9.997       8.887       7.776       6.666       5.555       4.445       3.335       2.224       1.114      3.3313E-03
   4    9.997       8.887       7.776       6.666       5.555       4.445       3.335       2.224       1.114      3.3313E-03
   5    9.997       8.887       7.776       6.666       5.555       4.445       3.335       2.224       1.114      3.3313E-03
   6    9.997       8.887       7.776       6.666       5.555       4.445       3.335       2.224       1.114      3.3313E-03
   7    9.997       8.887       7.776       6.666       5.555       4.445       3.335       2.224       1.114      3.3313E-03
   8    9.997       8.887       7.776       6.666       5.555       4.445       3.335       2.224       1.114      3.3313E-03
   9    9.997       8.887       7.776       6.666       5.555       4.445       3.335       2.224       1.114      3.3313E-03
  10    9.997       8.887       7.776       6.666       5.555       4.445       3.335       2.224       1.114      3.3313E-03

 HEAD WILL BE SAVED ON UNIT   51 AT END OF TIME STEP   21, STRESS PERIOD    2

 DRAWDOWN WILL BE SAVED ON UNIT   52 AT END OF TIME STEP   21, STRESS PERIOD    2
1
  VOLUMETRIC BUDGET FOR ENTIRE MODEL AT END OF TIME STEP   21, STRESS PERIOD   2
  ------------------------------------------------------------------------------

     CUMULATIVE VOLUMES      L**3       RATES FOR THIS TIME STEP      L**3/T
     ------------------                 ------------------------

           IN:                                      IN:
           ---                                      ---
             STORAGE =       1.0477E-08               STORAGE =           0.0000
       CONSTANT HEAD =           0.0000         CONSTANT HEAD =           0.0000
               WELLS =           0.0000                 WELLS =           0.0000
     HEAD DEP BOUNDS =       14658.8203       HEAD DEP BOUNDS =         666.3123

            TOTAL IN =       14658.8203              TOTAL IN =         666.3123

          OUT:                                     OUT:
          ----                                     ----
             STORAGE =       5.2387E-08               STORAGE =           0.0000
       CONSTANT HEAD =           0.0000         CONSTANT HEAD =           0.0000
               WELLS =           0.0000                 WELLS =           0.0000
     HEAD DEP BOUNDS =       14657.7129       HEAD DEP BOUNDS =         666.2595

           TOTAL OUT =       14657.7129             TOTAL OUT =         666.2595

            IN - OUT =           1.1074              IN - OUT =       5.2795E-02

 PERCENT DISCREPANCY =           0.01     PERCENT DISCREPANCY =           0.01






         TIME SUMMARY AT END OF TIME STEP   21 IN STRESS PERIOD    2
                    SECONDS     MINUTES      HOURS       DAYS        YEARS
                    -----------------------------------------------------------
   TIME STEP LENGTH  86400.      1440.0      24.000      1.0000     2.73785E-03
 STRESS PERIOD TIME 1.81440E+06  30240.      504.00      21.000     5.74949E-02
         TOTAL TIME 1.90080E+06  31680.      528.00      22.000     6.02327E-02
1
 
 SOLVING FOR HEAD 

 OUTPUT CONTROL FOR STRESS PERIOD    2   TIME STEP   22
    SAVE HEAD FOR ALL LAYERS
    SAVE DRAWDOWN FOR ALL LAYERS
    SAVE BUDGET
    PRINT HEAD FOR ALL LAYERS
    PRINT BUDGET
 UBDSV1 SAVING "         STORAGE" ON UNIT  53 AT TIME STEP 22, STRESS PERIOD   2
 UBDSV2 SAVING "   CONSTANT HEAD" ON UNIT  53 AT TIME STEP 22, STRESS PERIOD   2
 UBDSV1 SAVING "FLOW RIGHT FACE " ON UNIT  53 AT TIME STEP 22, STRESS PERIOD   2
 UBDSV1 SAVING "FLOW FRONT FACE " ON UNIT  53 AT TIME STEP 22, STRESS PERIOD   2
 UBDSV1 SAVING "FLOW LOWER FACE " ON UNIT  53 AT TIME STEP 22, STRESS PERIOD   2
1
              HEAD IN LAYER   1 AT END OF TIME STEP  22 IN STRESS PERIOD    2
  ---------------------------------------------------------------------------

            1           2           3           4           5           6           7           8           9          10
 ........................................................................................................................
   1    9.997       8.887       7.776       6.666       5.555       4.445       3.335       2.224       1.114      3.3313E-03
   2    9.997       8.887       7.776       6.666       5.555       4.445       3.335       2.224       1.114      3.3313E-03
   3    9.997       8.887       7.776       6.666       5.555       4.445       3.335       2.224       1.114      3.3313E-03
   4    9.997       8.887       7.776       6.666       5.555       4.445       3.335       2.224       1.114      3.3313E-03
   5    9.997       8.887       7.776       6.666       5.555       4.445       3.335       2.224       1.114      3.3313E-03
   6    9.997       8.887       7.776       6.666       5.555       4.445       3.335       2.224       1.114      3.3313E-03
   7    9.997       8.887       7.776       6.666       5.555       4.445       3.335       2.224       1.114      3.3313E-03
   8    9.997       8.887       7.776       6.666       5.555       4.445       3.335       2.224       1.114      3.3313E-03
   9    9.997       8.887       7.776       6.666       5.555       4.445       3.335       2.224       1.114      3.3313E-03
  10    9.997       8.887       7.776       6.666       5.555       4.445       3.335       2.224       1.114      3.3313E-03
1
              HEAD IN LAYER   2 AT END OF TIME STEP  22 IN STRESS PERIOD    2
  ---------------------------------------------------------------------------

            1           2           3           4           5           6           7           8           9          10
 ........................................................................................................................
   1    9.997       8.887       7.776       6.666       5.555       4.445       3.335       2.224       1.114      3.3313E-03
   2    9.997       8.887       7.776       6.666       5.555       4.445       3.335       2.224       1.114      3.3313E-03
   3    9.997       8.887       7.776       6.666       5.555       4.445       3.335       2.224       1.114      3.3313E-03
   4    9.997       8.887       7.776       6.666       5.555       4.445       3.335       2.224       1.114      3.3313E-03
   5    9.997       8.887       7.776       6.666       5.555       4.445       3.335       2.224       1.114      3.3313E-03
   6    9.997       8.887       7.776       6.666       5.555       4.445       3.335       2.224       1.114      3.3313E-03
   7    9.997       8.887       7.776       6.666       5.555       4.445       3.335       2.224       1.114      3.3313E-03
   8    9.997       8.887       7.776       6.666       5.555       4.445       3.335       2.224       1.114      3.3313E-03
   9    9.997       8.887       7.776       6.666       5.555       4.445       3.335       2.224       1.114      3.3313E-03
  10    9.997       8.887       7.776       6.666       5.555       4.445       3.335       2.224       1.114      3.3313E-03
1
              HEAD IN LAYER   3 AT END OF TIME STEP  22 IN STRESS PERIOD    2
  ---------------------------------------------------------------------------

            1           2           3           4           5           6           7           8           9          10
 ........................................................................................................................
   1    9.997       8.887       7.776       6.666       5.555       4.445       3.335       2.224       1.114      3.3313E-03
   2    9.997       8.887       7.776       6.666       5.555       4.445       3.335       2.224       1.114      3.3313E-03
   3    9.997       8.887       7.776       6.666       5.555       4.445       3.335       2.224       1.114      3.3313E-03
   4    9.997       8.887       7.776       6.666       5.555       4.445       3.335       2.224       1.114      3.3313E-03
   5    9.997       8.887       7.776       6.666       5.555       4.445       3.335       2.224       1.114      3.3313E-03
   6    9.997       8.887       7.776       6.666       5.555       4.445       3.335       2.224       1.114      3.3313E-03
   7    9.997       8.887       7.776       6.666       5.555       4.445       3.335       2.224       1.114      3.3313E-03
   8    9.997       8.887       7.776       6.666       5.555       4.445       3.335       2.224       1.114      3.3313E-03
   9    9.997       8.887       7.776       6.666       5.555       4.445       3.335       2.224       1.114      3.3313E-03
  10    9.997       8.887       7.776       6.666       5.555       4.445       3.335       2.224       1.114      3.3313E-03
1
              HEAD IN LAYER   4 AT END OF TIME STEP  22 IN STRESS PERIOD    2
  ---------------------------------------------------------------------------

            1           2           3           4           5           6           7           8           9          10
 ........................................................................................................................
   1    9.997       8.887       7.776       6.666       5.555       4.445       3.335       2.224       1.114      3.3313E-03
   2    9.997       8.887       7.776       6.666       5.555       4.445       3.335       2.224       1.114      3.3313E-03
   3    9.997       8.887       7.776       6.666       5.555       4.445       3.335       2.224       1.114      3.3313E-03
   4    9.997       8.887       7.776       6.666       5.555       4.445       3.335       2.224       1.114      3.3313E-03
   5    9.997       8.887       7.776       6.666       5.555       4.445       3.335       2.224       1.114      3.3313E-03
   6    9.997       8.887       7.776       6.666       5.555       4.445       3.335       2.224       1.114      3.3313E-03
   7    9.997       8.887       7.776       6.666       5.555       4.445       3.335       2.224       1.114      3.3313E-03
   8    9.997       8.887       7.776       6.666       5.555       4.445       3.335       2.224       1.114      3.3313E-03
   9    9.997       8.887       7.776       6.666       5.555       4.445       3.335       2.224       1.114      3.3313E-03
  10    9.997       8.887       7.776       6.666       5.555       4.445       3.335       2.224       1.114      3.3313E-03

 HEAD WILL BE SAVED ON UNIT   51 AT END OF TIME STEP   22, STRESS PERIOD    2

 DRAWDOWN WILL BE SAVED ON UNIT   52 AT END OF TIME STEP   22, STRESS PERIOD    2
1
  VOLUMETRIC BUDGET FOR ENTIRE MODEL AT END OF TIME STEP   22, STRESS PERIOD   2
  ------------------------------------------------------------------------------

     CUMULATIVE VOLUMES      L**3       RATES FOR THIS TIME STEP      L**3/T
     ------------------                 ------------------------

           IN:                                      IN:
           ---                                      ---
             STORAGE =       1.0477E-08               STORAGE =           0.0000
       CONSTANT HEAD =           0.0000         CONSTANT HEAD =           0.0000
               WELLS =           0.0000                 WELLS =           0.0000
     HEAD DEP BOUNDS =       15325.1328       HEAD DEP BOUNDS =         666.3123

            TOTAL IN =       15325.1328              TOTAL IN =         666.3123

          OUT:                                     OUT:
          ----                                     ----
             STORAGE =       5.2387E-08               STORAGE =           0.0000
       CONSTANT HEAD =           0.0000         CONSTANT HEAD =           0.0000
               WELLS =           0.0000                 WELLS =           0.0000
     HEAD DEP BOUNDS =       15323.9727       HEAD DEP BOUNDS =         666.2595

           TOTAL OUT =       15323.9727             TOTAL OUT =         666.2595

            IN - OUT =           1.1602              IN - OUT =       5.2795E-02

 PERCENT DISCREPANCY =           0.01     PERCENT DISCREPANCY =           0.01






         TIME SUMMARY AT END OF TIME STEP   22 IN STRESS PERIOD    2
                    SECONDS     MINUTES      HOURS       DAYS        YEARS
                    -----------------------------------------------------------
   TIME STEP LENGTH  86400.      1440.0      24.000      1.0000     2.73785E-03
 STRESS PERIOD TIME 1.90080E+06  31680.      528.00      22.000     6.02327E-02
         TOTAL TIME 1.98720E+06  33120.      552.00      23.000     6.29706E-02
1
 
 SOLVING FOR HEAD 

 OUTPUT CONTROL FOR STRESS PERIOD    2   TIME STEP   23
    SAVE HEAD FOR ALL LAYERS
    SAVE DRAWDOWN FOR ALL LAYERS
    SAVE BUDGET
    PRINT HEAD FOR ALL LAYERS
    PRINT BUDGET
 UBDSV1 SAVING "         STORAGE" ON UNIT  53 AT TIME STEP 23, STRESS PERIOD   2
 UBDSV2 SAVING "   CONSTANT HEAD" ON UNIT  53 AT TIME STEP 23, STRESS PERIOD   2
 UBDSV1 SAVING "FLOW RIGHT FACE " ON UNIT  53 AT TIME STEP 23, STRESS PERIOD   2
 UBDSV1 SAVING "FLOW FRONT FACE " ON UNIT  53 AT TIME STEP 23, STRESS PERIOD   2
 UBDSV1 SAVING "FLOW LOWER FACE " ON UNIT  53 AT TIME STEP 23, STRESS PERIOD   2
1
              HEAD IN LAYER   1 AT END OF TIME STEP  23 IN STRESS PERIOD    2
  ---------------------------------------------------------------------------

            1           2           3           4           5           6           7           8           9          10
 ........................................................................................................................
   1    9.997       8.887       7.776       6.666       5.555       4.445       3.335       2.224       1.114      3.3313E-03
   2    9.997       8.887       7.776       6.666       5.555       4.445       3.335       2.224       1.114      3.3313E-03
   3    9.997       8.887       7.776       6.666       5.555       4.445       3.335       2.224       1.114      3.3313E-03
   4    9.997       8.887       7.776       6.666       5.555       4.445       3.335       2.224       1.114      3.3313E-03
   5    9.997       8.887       7.776       6.666       5.555       4.445       3.335       2.224       1.114      3.3313E-03
   6    9.997       8.887       7.776       6.666       5.555       4.445       3.335       2.224       1.114      3.3313E-03
   7    9.997       8.887       7.776       6.666       5.555       4.445       3.335       2.224       1.114      3.3313E-03
   8    9.997       8.887       7.776       6.666       5.555       4.445       3.335       2.224       1.114      3.3313E-03
   9    9.997       8.887       7.776       6.666       5.555       4.445       3.335       2.224       1.114      3.3313E-03
  10    9.997       8.887       7.776       6.666       5.555       4.445       3.335       2.224       1.114      3.3313E-03
1
              HEAD IN LAYER   2 AT END OF TIME STEP  23 IN STRESS PERIOD    2
  ---------------------------------------------------------------------------

            1           2           3           4           5           6           7           8           9          10
 ........................................................................................................................
   1    9.997       8.887       7.776       6.666       5.555       4.445       3.335       2.224       1.114      3.3313E-03
   2    9.997       8.887       7.776       6.666       5.555       4.445       3.335       2.224       1.114      3.3313E-03
   3    9.997       8.887       7.776       6.666       5.555       4.445       3.335       2.224       1.114      3.3313E-03
   4    9.997       8.887       7.776       6.666       5.555       4.445       3.335       2.224       1.114      3.3313E-03
   5    9.997       8.887       7.776       6.666       5.555       4.445       3.335       2.224       1.114      3.3313E-03
   6    9.997       8.887       7.776       6.666       5.555       4.445       3.335       2.224       1.114      3.3313E-03
   7    9.997       8.887       7.776       6.666       5.555       4.445       3.335       2.224       1.114      3.3313E-03
   8    9.997       8.887       7.776       6.666       5.555       4.445       3.335       2.224       1.114      3.3313E-03
   9    9.997       8.887       7.776       6.666       5.555       4.445       3.335       2.224       1.114      3.3313E-03
  10    9.997       8.887       7.776       6.666       5.555       4.445       3.335       2.224       1.114      3.3313E-03
1
              HEAD IN LAYER   3 AT END OF TIME STEP  23 IN STRESS PERIOD    2
  ---------------------------------------------------------------------------

            1           2           3           4           5           6           7           8           9          10
 ........................................................................................................................
   1    9.997       8.887       7.776       6.666       5.555       4.445       3.335       2.224       1.114      3.3313E-03
   2    9.997       8.887       7.776       6.666       5.555       4.445       3.335       2.224       1.114      3.3313E-03
   3    9.997       8.887       7.776       6.666       5.555       4.445       3.335       2.224       1.114      3.3313E-03
   4    9.997       8.887       7.776       6.666       5.555       4.445       3.335       2.224       1.114      3.3313E-03
   5    9.997       8.887       7.776       6.666       5.555       4.445       3.335       2.224       1.114      3.3313E-03
   6    9.997       8.887       7.776       6.666       5.555       4.445       3.335       2.224       1.114      3.3313E-03
   7    9.997       8.887       7.776       6.666       5.555       4.445       3.335       2.224       1.114      3.3313E-03
   8    9.997       8.887       7.776       6.666       5.555       4.445       3.335       2.224       1.114      3.3313E-03
   9    9.997       8.887       7.776       6.666       5.555       4.445       3.335       2.224       1.114      3.3313E-03
  10    9.997       8.887       7.776       6.666       5.555       4.445       3.335       2.224       1.114      3.3313E-03
1
              HEAD IN LAYER   4 AT END OF TIME STEP  23 IN STRESS PERIOD    2
  ---------------------------------------------------------------------------

            1           2           3           4           5           6           7           8           9          10
 ........................................................................................................................
   1    9.997       8.887       7.776       6.666       5.555       4.445       3.335       2.224       1.114      3.3313E-03
   2    9.997       8.887       7.776       6.666       5.555       4.445       3.335       2.224       1.114      3.3313E-03
   3    9.997       8.887       7.776       6.666       5.555       4.445       3.335       2.224       1.114      3.3313E-03
   4    9.997       8.887       7.776       6.666       5.555       4.445       3.335       2.224       1.114      3.3313E-03
   5    9.997       8.887       7.776       6.666       5.555       4.445       3.335       2.224       1.114      3.3313E-03
   6    9.997       8.887       7.776       6.666       5.555       4.445       3.335       2.224       1.114      3.3313E-03
   7    9.997       8.887       7.776       6.666       5.555       4.445       3.335       2.224       1.114      3.3313E-03
   8    9.997       8.887       7.776       6.666       5.555       4.445       3.335       2.224       1.114      3.3313E-03
   9    9.997       8.887       7.776       6.666       5.555       4.445       3.335       2.224       1.114      3.3313E-03
  10    9.997       8.887       7.776       6.666       5.555       4.445       3.335       2.224       1.114      3.3313E-03

 HEAD WILL BE SAVED ON UNIT   51 AT END OF TIME STEP   23, STRESS PERIOD    2

 DRAWDOWN WILL BE SAVED ON UNIT   52 AT END OF TIME STEP   23, STRESS PERIOD    2
1
  VOLUMETRIC BUDGET FOR ENTIRE MODEL AT END OF TIME STEP   23, STRESS PERIOD   2
  ------------------------------------------------------------------------------

     CUMULATIVE VOLUMES      L**3       RATES FOR THIS TIME STEP      L**3/T
     ------------------                 ------------------------

           IN:                                      IN:
           ---                                      ---
             STORAGE =       1.0477E-08               STORAGE =           0.0000
       CONSTANT HEAD =           0.0000         CONSTANT HEAD =           0.0000
               WELLS =           0.0000                 WELLS =           0.0000
     HEAD DEP BOUNDS =       15991.4453       HEAD DEP BOUNDS =         666.3123

            TOTAL IN =       15991.4453              TOTAL IN =         666.3123

          OUT:                                     OUT:
          ----                                     ----
             STORAGE =       5.2387E-08               STORAGE =           0.0000
       CONSTANT HEAD =           0.0000         CONSTANT HEAD =           0.0000
               WELLS =           0.0000                 WELLS =           0.0000
     HEAD DEP BOUNDS =       15990.2324       HEAD DEP BOUNDS =         666.2595

           TOTAL OUT =       15990.2324             TOTAL OUT =         666.2595

            IN - OUT =           1.2129              IN - OUT =       5.2795E-02

 PERCENT DISCREPANCY =           0.01     PERCENT DISCREPANCY =           0.01






         TIME SUMMARY AT END OF TIME STEP   23 IN STRESS PERIOD    2
                    SECONDS     MINUTES      HOURS       DAYS        YEARS
                    -----------------------------------------------------------
   TIME STEP LENGTH  86400.      1440.0      24.000      1.0000     2.73785E-03
 STRESS PERIOD TIME 1.98720E+06  33120.      552.00      23.000     6.29706E-02
         TOTAL TIME 2.07360E+06  34560.      576.00      24.000     6.57084E-02
1
 
 SOLVING FOR HEAD 

 OUTPUT CONTROL FOR STRESS PERIOD    2   TIME STEP   24
    SAVE HEAD FOR ALL LAYERS
    SAVE DRAWDOWN FOR ALL LAYERS
    SAVE BUDGET
    PRINT HEAD FOR ALL LAYERS
    PRINT BUDGET
 UBDSV1 SAVING "         STORAGE" ON UNIT  53 AT TIME STEP 24, STRESS PERIOD   2
 UBDSV2 SAVING "   CONSTANT HEAD" ON UNIT  53 AT TIME STEP 24, STRESS PERIOD   2
 UBDSV1 SAVING "FLOW RIGHT FACE " ON UNIT  53 AT TIME STEP 24, STRESS PERIOD   2
 UBDSV1 SAVING "FLOW FRONT FACE " ON UNIT  53 AT TIME STEP 24, STRESS PERIOD   2
 UBDSV1 SAVING "FLOW LOWER FACE " ON UNIT  53 AT TIME STEP 24, STRESS PERIOD   2
1
              HEAD IN LAYER   1 AT END OF TIME STEP  24 IN STRESS PERIOD    2
  ---------------------------------------------------------------------------

            1           2           3           4           5           6           7           8           9          10
 ........................................................................................................................
   1    9.997       8.887       7.776       6.666       5.555       4.445       3.335       2.224       1.114      3.3313E-03
   2    9.997       8.887       7.776       6.666       5.555       4.445       3.335       2.224       1.114      3.3313E-03
   3    9.997       8.887       7.776       6.666       5.555       4.445       3.335       2.224       1.114      3.3313E-03
   4    9.997       8.887       7.776       6.666       5.555       4.445       3.335       2.224       1.114      3.3313E-03
   5    9.997       8.887       7.776       6.666       5.555       4.445       3.335       2.224       1.114      3.3313E-03
   6    9.997       8.887       7.776       6.666       5.555       4.445       3.335       2.224       1.114      3.3313E-03
   7    9.997       8.887       7.776       6.666       5.555       4.445       3.335       2.224       1.114      3.3313E-03
   8    9.997       8.887       7.776       6.666       5.555       4.445       3.335       2.224       1.114      3.3313E-03
   9    9.997       8.887       7.776       6.666       5.555       4.445       3.335       2.224       1.114      3.3313E-03
  10    9.997       8.887       7.776       6.666       5.555       4.445       3.335       2.224       1.114      3.3313E-03
1
              HEAD IN LAYER   2 AT END OF TIME STEP  24 IN STRESS PERIOD    2
  ---------------------------------------------------------------------------

            1           2           3           4           5           6           7           8           9          10
 ........................................................................................................................
   1    9.997       8.887       7.776       6.666       5.555       4.445       3.335       2.224       1.114      3.3313E-03
   2    9.997       8.887       7.776       6.666       5.555       4.445       3.335       2.224       1.114      3.3313E-03
   3    9.997       8.887       7.776       6.666       5.555       4.445       3.335       2.224       1.114      3.3313E-03
   4    9.997       8.887       7.776       6.666       5.555       4.445       3.335       2.224       1.114      3.3313E-03
   5    9.997       8.887       7.776       6.666       5.555       4.445       3.335       2.224       1.114      3.3313E-03
   6    9.997       8.887       7.776       6.666       5.555       4.445       3.335       2.224       1.114      3.3313E-03
   7    9.997       8.887       7.776       6.666       5.555       4.445       3.335       2.224       1.114      3.3313E-03
   8    9.997       8.887       7.776       6.666       5.555       4.445       3.335       2.224       1.114      3.3313E-03
   9    9.997       8.887       7.776       6.666       5.555       4.445       3.335       2.224       1.114      3.3313E-03
  10    9.997       8.887       7.776       6.666       5.555       4.445       3.335       2.224       1.114      3.3313E-03
1
              HEAD IN LAYER   3 AT END OF TIME STEP  24 IN STRESS PERIOD    2
  ---------------------------------------------------------------------------

            1           2           3           4           5           6           7           8           9          10
 ........................................................................................................................
   1    9.997       8.887       7.776       6.666       5.555       4.445       3.335       2.224       1.114      3.3313E-03
   2    9.997       8.887       7.776       6.666       5.555       4.445       3.335       2.224       1.114      3.3313E-03
   3    9.997       8.887       7.776       6.666       5.555       4.445       3.335       2.224       1.114      3.3313E-03
   4    9.997       8.887       7.776       6.666       5.555       4.445       3.335       2.224       1.114      3.3313E-03
   5    9.997       8.887       7.776       6.666       5.555       4.445       3.335       2.224       1.114      3.3313E-03
   6    9.997       8.887       7.776       6.666       5.555       4.445       3.335       2.224       1.114      3.3313E-03
   7    9.997       8.887       7.776       6.666       5.555       4.445       3.335       2.224       1.114      3.3313E-03
   8    9.997       8.887       7.776       6.666       5.555       4.445       3.335       2.224       1.114      3.3313E-03
   9    9.997       8.887       7.776       6.666       5.555       4.445       3.335       2.224       1.114      3.3313E-03
  10    9.997       8.887       7.776       6.666       5.555       4.445       3.335       2.224       1.114      3.3313E-03
1
              HEAD IN LAYER   4 AT END OF TIME STEP  24 IN STRESS PERIOD    2
  ---------------------------------------------------------------------------

            1           2           3           4           5           6           7           8           9          10
 ........................................................................................................................
   1    9.997       8.887       7.776       6.666       5.555       4.445       3.335       2.224       1.114      3.3313E-03
   2    9.997       8.887       7.776       6.666       5.555       4.445       3.335       2.224       1.114      3.3313E-03
   3    9.997       8.887       7.776       6.666       5.555       4.445       3.335       2.224       1.114      3.3313E-03
   4    9.997       8.887       7.776       6.666       5.555       4.445       3.335       2.224       1.114      3.3313E-03
   5    9.997       8.887       7.776       6.666       5.555       4.445       3.335       2.224       1.114      3.3313E-03
   6    9.997       8.887       7.776       6.666       5.555       4.445       3.335       2.224       1.114      3.3313E-03
   7    9.997       8.887       7.776       6.666       5.555       4.445       3.335       2.224       1.114      3.3313E-03
   8    9.997       8.887       7.776       6.666       5.555       4.445       3.335       2.224       1.114      3.3313E-03
   9    9.997       8.887       7.776       6.666       5.555       4.445       3.335       2.224       1.114      3.3313E-03
  10    9.997       8.887       7.776       6.666       5.555       4.445       3.335       2.224       1.114      3.3313E-03

 HEAD WILL BE SAVED ON UNIT   51 AT END OF TIME STEP   24, STRESS PERIOD    2

 DRAWDOWN WILL BE SAVED ON UNIT   52 AT END OF TIME STEP   24, STRESS PERIOD    2
1
  VOLUMETRIC BUDGET FOR ENTIRE MODEL AT END OF TIME STEP   24, STRESS PERIOD   2
  ------------------------------------------------------------------------------

     CUMULATIVE VOLUMES      L**3       RATES FOR THIS TIME STEP      L**3/T
     ------------------                 ------------------------

           IN:                                      IN:
           ---                                      ---
             STORAGE =       1.0477E-08               STORAGE =           0.0000
       CONSTANT HEAD =           0.0000         CONSTANT HEAD =           0.0000
               WELLS =           0.0000                 WELLS =           0.0000
     HEAD DEP BOUNDS =       16657.7578       HEAD DEP BOUNDS =         666.3123

            TOTAL IN =       16657.7578              TOTAL IN =         666.3123

          OUT:                                     OUT:
          ----                                     ----
             STORAGE =       5.2387E-08               STORAGE =           0.0000
       CONSTANT HEAD =           0.0000         CONSTANT HEAD =           0.0000
               WELLS =           0.0000                 WELLS =           0.0000
     HEAD DEP BOUNDS =       16656.4922       HEAD DEP BOUNDS =         666.2595

           TOTAL OUT =       16656.4922             TOTAL OUT =         666.2595

            IN - OUT =           1.2656              IN - OUT =       5.2795E-02

 PERCENT DISCREPANCY =           0.01     PERCENT DISCREPANCY =           0.01






         TIME SUMMARY AT END OF TIME STEP   24 IN STRESS PERIOD    2
                    SECONDS     MINUTES      HOURS       DAYS        YEARS
                    -----------------------------------------------------------
   TIME STEP LENGTH  86400.      1440.0      24.000      1.0000     2.73785E-03
 STRESS PERIOD TIME 2.07360E+06  34560.      576.00      24.000     6.57084E-02
         TOTAL TIME 2.16000E+06  36000.      600.00      25.000     6.84463E-02
1
 
 SOLVING FOR HEAD 

 OUTPUT CONTROL FOR STRESS PERIOD    2   TIME STEP   25
    SAVE HEAD FOR ALL LAYERS
    SAVE DRAWDOWN FOR ALL LAYERS
    SAVE BUDGET
    PRINT HEAD FOR ALL LAYERS
    PRINT BUDGET
 UBDSV1 SAVING "         STORAGE" ON UNIT  53 AT TIME STEP 25, STRESS PERIOD   2
 UBDSV2 SAVING "   CONSTANT HEAD" ON UNIT  53 AT TIME STEP 25, STRESS PERIOD   2
 UBDSV1 SAVING "FLOW RIGHT FACE " ON UNIT  53 AT TIME STEP 25, STRESS PERIOD   2
 UBDSV1 SAVING "FLOW FRONT FACE " ON UNIT  53 AT TIME STEP 25, STRESS PERIOD   2
 UBDSV1 SAVING "FLOW LOWER FACE " ON UNIT  53 AT TIME STEP 25, STRESS PERIOD   2
1
              HEAD IN LAYER   1 AT END OF TIME STEP  25 IN STRESS PERIOD    2
  ---------------------------------------------------------------------------

            1           2           3           4           5           6           7           8           9          10
 ........................................................................................................................
   1    9.997       8.887       7.776       6.666       5.555       4.445       3.335       2.224       1.114      3.3313E-03
   2    9.997       8.887       7.776       6.666       5.555       4.445       3.335       2.224       1.114      3.3313E-03
   3    9.997       8.887       7.776       6.666       5.555       4.445       3.335       2.224       1.114      3.3313E-03
   4    9.997       8.887       7.776       6.666       5.555       4.445       3.335       2.224       1.114      3.3313E-03
   5    9.997       8.887       7.776       6.666       5.555       4.445       3.335       2.224       1.114      3.3313E-03
   6    9.997       8.887       7.776       6.666       5.555       4.445       3.335       2.224       1.114      3.3313E-03
   7    9.997       8.887       7.776       6.666       5.555       4.445       3.335       2.224       1.114      3.3313E-03
   8    9.997       8.887       7.776       6.666       5.555       4.445       3.335       2.224       1.114      3.3313E-03
   9    9.997       8.887       7.776       6.666       5.555       4.445       3.335       2.224       1.114      3.3313E-03
  10    9.997       8.887       7.776       6.666       5.555       4.445       3.335       2.224       1.114      3.3313E-03
1
              HEAD IN LAYER   2 AT END OF TIME STEP  25 IN STRESS PERIOD    2
  ---------------------------------------------------------------------------

            1           2           3           4           5           6           7           8           9          10
 ........................................................................................................................
   1    9.997       8.887       7.776       6.666       5.555       4.445       3.335       2.224       1.114      3.3313E-03
   2    9.997       8.887       7.776       6.666       5.555       4.445       3.335       2.224       1.114      3.3313E-03
   3    9.997       8.887       7.776       6.666       5.555       4.445       3.335       2.224       1.114      3.3313E-03
   4    9.997       8.887       7.776       6.666       5.555       4.445       3.335       2.224       1.114      3.3313E-03
   5    9.997       8.887       7.776       6.666       5.555       4.445       3.335       2.224       1.114      3.3313E-03
   6    9.997       8.887       7.776       6.666       5.555       4.445       3.335       2.224       1.114      3.3313E-03
   7    9.997       8.887       7.776       6.666       5.555       4.445       3.335       2.224       1.114      3.3313E-03
   8    9.997       8.887       7.776       6.666       5.555       4.445       3.335       2.224       1.114      3.3313E-03
   9    9.997       8.887       7.776       6.666       5.555       4.445       3.335       2.224       1.114      3.3313E-03
  10    9.997       8.887       7.776       6.666       5.555       4.445       3.335       2.224       1.114      3.3313E-03
1
              HEAD IN LAYER   3 AT END OF TIME STEP  25 IN STRESS PERIOD    2
  ---------------------------------------------------------------------------

            1           2           3           4           5           6           7           8           9          10
 ........................................................................................................................
   1    9.997       8.887       7.776       6.666       5.555       4.445       3.335       2.224       1.114      3.3313E-03
   2    9.997       8.887       7.776       6.666       5.555       4.445       3.335       2.224       1.114      3.3313E-03
   3    9.997       8.887       7.776       6.666       5.555       4.445       3.335       2.224       1.114      3.3313E-03
   4    9.997       8.887       7.776       6.666       5.555       4.445       3.335       2.224       1.114      3.3313E-03
   5    9.997       8.887       7.776       6.666       5.555       4.445       3.335       2.224       1.114      3.3313E-03
   6    9.997       8.887       7.776       6.666       5.555       4.445       3.335       2.224       1.114      3.3313E-03
   7    9.997       8.887       7.776       6.666       5.555       4.445       3.335       2.224       1.114      3.3313E-03
   8    9.997       8.887       7.776       6.666       5.555       4.445       3.335       2.224       1.114      3.3313E-03
   9    9.997       8.887       7.776       6.666       5.555       4.445       3.335       2.224       1.114      3.3313E-03
  10    9.997       8.887       7.776       6.666       5.555       4.445       3.335       2.224       1.114      3.3313E-03
1
              HEAD IN LAYER   4 AT END OF TIME STEP  25 IN STRESS PERIOD    2
  ---------------------------------------------------------------------------

            1           2           3           4           5           6           7           8           9          10
 ........................................................................................................................
   1    9.997       8.887       7.776       6.666       5.555       4.445       3.335       2.224       1.114      3.3313E-03
   2    9.997       8.887       7.776       6.666       5.555       4.445       3.335       2.224       1.114      3.3313E-03
   3    9.997       8.887       7.776       6.666       5.555       4.445       3.335       2.224       1.114      3.3313E-03
   4    9.997       8.887       7.776       6.666       5.555       4.445       3.335       2.224       1.114      3.3313E-03
   5    9.997       8.887       7.776       6.666       5.555       4.445       3.335       2.224       1.114      3.3313E-03
   6    9.997       8.887       7.776       6.666       5.555       4.445       3.335       2.224       1.114      3.3313E-03
   7    9.997       8.887       7.776       6.666       5.555       4.445       3.335       2.224       1.114      3.3313E-03
   8    9.997       8.887       7.776       6.666       5.555       4.445       3.335       2.224       1.114      3.3313E-03
   9    9.997       8.887       7.776       6.666       5.555       4.445       3.335       2.224       1.114      3.3313E-03
  10    9.997       8.887       7.776       6.666       5.555       4.445       3.335       2.224       1.114      3.3313E-03

 HEAD WILL BE SAVED ON UNIT   51 AT END OF TIME STEP   25, STRESS PERIOD    2

 DRAWDOWN WILL BE SAVED ON UNIT   52 AT END OF TIME STEP   25, STRESS PERIOD    2
1
  VOLUMETRIC BUDGET FOR ENTIRE MODEL AT END OF TIME STEP   25, STRESS PERIOD   2
  ------------------------------------------------------------------------------

     CUMULATIVE VOLUMES      L**3       RATES FOR THIS TIME STEP      L**3/T
     ------------------                 ------------------------

           IN:                                      IN:
           ---                                      ---
             STORAGE =       1.0477E-08               STORAGE =           0.0000
       CONSTANT HEAD =           0.0000         CONSTANT HEAD =           0.0000
               WELLS =           0.0000                 WELLS =           0.0000
     HEAD DEP BOUNDS =       17324.0703       HEAD DEP BOUNDS =         666.3123

            TOTAL IN =       17324.0703              TOTAL IN =         666.3123

          OUT:                                     OUT:
          ----                                     ----
             STORAGE =       5.2387E-08               STORAGE =           0.0000
       CONSTANT HEAD =           0.0000         CONSTANT HEAD =           0.0000
               WELLS =           0.0000                 WELLS =           0.0000
     HEAD DEP BOUNDS =       17322.7520       HEAD DEP BOUNDS =         666.2595

           TOTAL OUT =       17322.7520             TOTAL OUT =         666.2595

            IN - OUT =           1.3184              IN - OUT =       5.2795E-02

 PERCENT DISCREPANCY =           0.01     PERCENT DISCREPANCY =           0.01






         TIME SUMMARY AT END OF TIME STEP   25 IN STRESS PERIOD    2
                    SECONDS     MINUTES      HOURS       DAYS        YEARS
                    -----------------------------------------------------------
   TIME STEP LENGTH  86400.      1440.0      24.000      1.0000     2.73785E-03
 STRESS PERIOD TIME 2.16000E+06  36000.      600.00      25.000     6.84463E-02
         TOTAL TIME 2.24640E+06  37440.      624.00      26.000     7.11841E-02
1
 
 SOLVING FOR HEAD 

 OUTPUT CONTROL FOR STRESS PERIOD    2   TIME STEP   26
    SAVE HEAD FOR ALL LAYERS
    SAVE DRAWDOWN FOR ALL LAYERS
    SAVE BUDGET
    PRINT HEAD FOR ALL LAYERS
    PRINT BUDGET
 UBDSV1 SAVING "         STORAGE" ON UNIT  53 AT TIME STEP 26, STRESS PERIOD   2
 UBDSV2 SAVING "   CONSTANT HEAD" ON UNIT  53 AT TIME STEP 26, STRESS PERIOD   2
 UBDSV1 SAVING "FLOW RIGHT FACE " ON UNIT  53 AT TIME STEP 26, STRESS PERIOD   2
 UBDSV1 SAVING "FLOW FRONT FACE " ON UNIT  53 AT TIME STEP 26, STRESS PERIOD   2
 UBDSV1 SAVING "FLOW LOWER FACE " ON UNIT  53 AT TIME STEP 26, STRESS PERIOD   2
1
              HEAD IN LAYER   1 AT END OF TIME STEP  26 IN STRESS PERIOD    2
  ---------------------------------------------------------------------------

            1           2           3           4           5           6           7           8           9          10
 ........................................................................................................................
   1    9.997       8.887       7.776       6.666       5.555       4.445       3.335       2.224       1.114      3.3313E-03
   2    9.997       8.887       7.776       6.666       5.555       4.445       3.335       2.224       1.114      3.3313E-03
   3    9.997       8.887       7.776       6.666       5.555       4.445       3.335       2.224       1.114      3.3313E-03
   4    9.997       8.887       7.776       6.666       5.555       4.445       3.335       2.224       1.114      3.3313E-03
   5    9.997       8.887       7.776       6.666       5.555       4.445       3.335       2.224       1.114      3.3313E-03
   6    9.997       8.887       7.776       6.666       5.555       4.445       3.335       2.224       1.114      3.3313E-03
   7    9.997       8.887       7.776       6.666       5.555       4.445       3.335       2.224       1.114      3.3313E-03
   8    9.997       8.887       7.776       6.666       5.555       4.445       3.335       2.224       1.114      3.3313E-03
   9    9.997       8.887       7.776       6.666       5.555       4.445       3.335       2.224       1.114      3.3313E-03
  10    9.997       8.887       7.776       6.666       5.555       4.445       3.335       2.224       1.114      3.3313E-03
1
              HEAD IN LAYER   2 AT END OF TIME STEP  26 IN STRESS PERIOD    2
  ---------------------------------------------------------------------------

            1           2           3           4           5           6           7           8           9          10
 ........................................................................................................................
   1    9.997       8.887       7.776       6.666       5.555       4.445       3.335       2.224       1.114      3.3313E-03
   2    9.997       8.887       7.776       6.666       5.555       4.445       3.335       2.224       1.114      3.3313E-03
   3    9.997       8.887       7.776       6.666       5.555       4.445       3.335       2.224       1.114      3.3313E-03
   4    9.997       8.887       7.776       6.666       5.555       4.445       3.335       2.224       1.114      3.3313E-03
   5    9.997       8.887       7.776       6.666       5.555       4.445       3.335       2.224       1.114      3.3313E-03
   6    9.997       8.887       7.776       6.666       5.555       4.445       3.335       2.224       1.114      3.3313E-03
   7    9.997       8.887       7.776       6.666       5.555       4.445       3.335       2.224       1.114      3.3313E-03
   8    9.997       8.887       7.776       6.666       5.555       4.445       3.335       2.224       1.114      3.3313E-03
   9    9.997       8.887       7.776       6.666       5.555       4.445       3.335       2.224       1.114      3.3313E-03
  10    9.997       8.887       7.776       6.666       5.555       4.445       3.335       2.224       1.114      3.3313E-03
1
              HEAD IN LAYER   3 AT END OF TIME STEP  26 IN STRESS PERIOD    2
  ---------------------------------------------------------------------------

            1           2           3           4           5           6           7           8           9          10
 ........................................................................................................................
   1    9.997       8.887       7.776       6.666       5.555       4.445       3.335       2.224       1.114      3.3313E-03
   2    9.997       8.887       7.776       6.666       5.555       4.445       3.335       2.224       1.114      3.3313E-03
   3    9.997       8.887       7.776       6.666       5.555       4.445       3.335       2.224       1.114      3.3313E-03
   4    9.997       8.887       7.776       6.666       5.555       4.445       3.335       2.224       1.114      3.3313E-03
   5    9.997       8.887       7.776       6.666       5.555       4.445       3.335       2.224       1.114      3.3313E-03
   6    9.997       8.887       7.776       6.666       5.555       4.445       3.335       2.224       1.114      3.3313E-03
   7    9.997       8.887       7.776       6.666       5.555       4.445       3.335       2.224       1.114      3.3313E-03
   8    9.997       8.887       7.776       6.666       5.555       4.445       3.335       2.224       1.114      3.3313E-03
   9    9.997       8.887       7.776       6.666       5.555       4.445       3.335       2.224       1.114      3.3313E-03
  10    9.997       8.887       7.776       6.666       5.555       4.445       3.335       2.224       1.114      3.3313E-03
1
              HEAD IN LAYER   4 AT END OF TIME STEP  26 IN STRESS PERIOD    2
  ---------------------------------------------------------------------------

            1           2           3           4           5           6           7           8           9          10
 ........................................................................................................................
   1    9.997       8.887       7.776       6.666       5.555       4.445       3.335       2.224       1.114      3.3313E-03
   2    9.997       8.887       7.776       6.666       5.555       4.445       3.335       2.224       1.114      3.3313E-03
   3    9.997       8.887       7.776       6.666       5.555       4.445       3.335       2.224       1.114      3.3313E-03
   4    9.997       8.887       7.776       6.666       5.555       4.445       3.335       2.224       1.114      3.3313E-03
   5    9.997       8.887       7.776       6.666       5.555       4.445       3.335       2.224       1.114      3.3313E-03
   6    9.997       8.887       7.776       6.666       5.555       4.445       3.335       2.224       1.114      3.3313E-03
   7    9.997       8.887       7.776       6.666       5.555       4.445       3.335       2.224       1.114      3.3313E-03
   8    9.997       8.887       7.776       6.666       5.555       4.445       3.335       2.224       1.114      3.3313E-03
   9    9.997       8.887       7.776       6.666       5.555       4.445       3.335       2.224       1.114      3.3313E-03
  10    9.997       8.887       7.776       6.666       5.555       4.445       3.335       2.224       1.114      3.3313E-03

 HEAD WILL BE SAVED ON UNIT   51 AT END OF TIME STEP   26, STRESS PERIOD    2

 DRAWDOWN WILL BE SAVED ON UNIT   52 AT END OF TIME STEP   26, STRESS PERIOD    2
1
  VOLUMETRIC BUDGET FOR ENTIRE MODEL AT END OF TIME STEP   26, STRESS PERIOD   2
  ------------------------------------------------------------------------------

     CUMULATIVE VOLUMES      L**3       RATES FOR THIS TIME STEP      L**3/T
     ------------------                 ------------------------

           IN:                                      IN:
           ---                                      ---
             STORAGE =       1.0477E-08               STORAGE =           0.0000
       CONSTANT HEAD =           0.0000         CONSTANT HEAD =           0.0000
               WELLS =           0.0000                 WELLS =           0.0000
     HEAD DEP BOUNDS =       17990.3828       HEAD DEP BOUNDS =         666.3123

            TOTAL IN =       17990.3828              TOTAL IN =         666.3123

          OUT:                                     OUT:
          ----                                     ----
             STORAGE =       5.2387E-08               STORAGE =           0.0000
       CONSTANT HEAD =           0.0000         CONSTANT HEAD =           0.0000
               WELLS =           0.0000                 WELLS =           0.0000
     HEAD DEP BOUNDS =       17989.0117       HEAD DEP BOUNDS =         666.2595

           TOTAL OUT =       17989.0117             TOTAL OUT =         666.2595

            IN - OUT =           1.3711              IN - OUT =       5.2795E-02

 PERCENT DISCREPANCY =           0.01     PERCENT DISCREPANCY =           0.01






         TIME SUMMARY AT END OF TIME STEP   26 IN STRESS PERIOD    2
                    SECONDS     MINUTES      HOURS       DAYS        YEARS
                    -----------------------------------------------------------
   TIME STEP LENGTH  86400.      1440.0      24.000      1.0000     2.73785E-03
 STRESS PERIOD TIME 2.24640E+06  37440.      624.00      26.000     7.11841E-02
         TOTAL TIME 2.33280E+06  38880.      648.00      27.000     7.39220E-02
1
 
 SOLVING FOR HEAD 

 OUTPUT CONTROL FOR STRESS PERIOD    2   TIME STEP   27
    SAVE HEAD FOR ALL LAYERS
    SAVE DRAWDOWN FOR ALL LAYERS
    SAVE BUDGET
    PRINT HEAD FOR ALL LAYERS
    PRINT BUDGET
 UBDSV1 SAVING "         STORAGE" ON UNIT  53 AT TIME STEP 27, STRESS PERIOD   2
 UBDSV2 SAVING "   CONSTANT HEAD" ON UNIT  53 AT TIME STEP 27, STRESS PERIOD   2
 UBDSV1 SAVING "FLOW RIGHT FACE " ON UNIT  53 AT TIME STEP 27, STRESS PERIOD   2
 UBDSV1 SAVING "FLOW FRONT FACE " ON UNIT  53 AT TIME STEP 27, STRESS PERIOD   2
 UBDSV1 SAVING "FLOW LOWER FACE " ON UNIT  53 AT TIME STEP 27, STRESS PERIOD   2
1
              HEAD IN LAYER   1 AT END OF TIME STEP  27 IN STRESS PERIOD    2
  ---------------------------------------------------------------------------

            1           2           3           4           5           6           7           8           9          10
 ........................................................................................................................
   1    9.997       8.887       7.776       6.666       5.555       4.445       3.335       2.224       1.114      3.3313E-03
   2    9.997       8.887       7.776       6.666       5.555       4.445       3.335       2.224       1.114      3.3313E-03
   3    9.997       8.887       7.776       6.666       5.555       4.445       3.335       2.224       1.114      3.3313E-03
   4    9.997       8.887       7.776       6.666       5.555       4.445       3.335       2.224       1.114      3.3313E-03
   5    9.997       8.887       7.776       6.666       5.555       4.445       3.335       2.224       1.114      3.3313E-03
   6    9.997       8.887       7.776       6.666       5.555       4.445       3.335       2.224       1.114      3.3313E-03
   7    9.997       8.887       7.776       6.666       5.555       4.445       3.335       2.224       1.114      3.3313E-03
   8    9.997       8.887       7.776       6.666       5.555       4.445       3.335       2.224       1.114      3.3313E-03
   9    9.997       8.887       7.776       6.666       5.555       4.445       3.335       2.224       1.114      3.3313E-03
  10    9.997       8.887       7.776       6.666       5.555       4.445       3.335       2.224       1.114      3.3313E-03
1
              HEAD IN LAYER   2 AT END OF TIME STEP  27 IN STRESS PERIOD    2
  ---------------------------------------------------------------------------

            1           2           3           4           5           6           7           8           9          10
 ........................................................................................................................
   1    9.997       8.887       7.776       6.666       5.555       4.445       3.335       2.224       1.114      3.3313E-03
   2    9.997       8.887       7.776       6.666       5.555       4.445       3.335       2.224       1.114      3.3313E-03
   3    9.997       8.887       7.776       6.666       5.555       4.445       3.335       2.224       1.114      3.3313E-03
   4    9.997       8.887       7.776       6.666       5.555       4.445       3.335       2.224       1.114      3.3313E-03
   5    9.997       8.887       7.776       6.666       5.555       4.445       3.335       2.224       1.114      3.3313E-03
   6    9.997       8.887       7.776       6.666       5.555       4.445       3.335       2.224       1.114      3.3313E-03
   7    9.997       8.887       7.776       6.666       5.555       4.445       3.335       2.224       1.114      3.3313E-03
   8    9.997       8.887       7.776       6.666       5.555       4.445       3.335       2.224       1.114      3.3313E-03
   9    9.997       8.887       7.776       6.666       5.555       4.445       3.335       2.224       1.114      3.3313E-03
  10    9.997       8.887       7.776       6.666       5.555       4.445       3.335       2.224       1.114      3.3313E-03
1
              HEAD IN LAYER   3 AT END OF TIME STEP  27 IN STRESS PERIOD    2
  ---------------------------------------------------------------------------

            1           2           3           4           5           6           7           8           9          10
 ........................................................................................................................
   1    9.997       8.887       7.776       6.666       5.555       4.445       3.335       2.224       1.114      3.3313E-03
   2    9.997       8.887       7.776       6.666       5.555       4.445       3.335       2.224       1.114      3.3313E-03
   3    9.997       8.887       7.776       6.666       5.555       4.445       3.335       2.224       1.114      3.3313E-03
   4    9.997       8.887       7.776       6.666       5.555       4.445       3.335       2.224       1.114      3.3313E-03
   5    9.997       8.887       7.776       6.666       5.555       4.445       3.335       2.224       1.114      3.3313E-03
   6    9.997       8.887       7.776       6.666       5.555       4.445       3.335       2.224       1.114      3.3313E-03
   7    9.997       8.887       7.776       6.666       5.555       4.445       3.335       2.224       1.114      3.3313E-03
   8    9.997       8.887       7.776       6.666       5.555       4.445       3.335       2.224       1.114      3.3313E-03
   9    9.997       8.887       7.776       6.666       5.555       4.445       3.335       2.224       1.114      3.3313E-03
  10    9.997       8.887       7.776       6.666       5.555       4.445       3.335       2.224       1.114      3.3313E-03
1
              HEAD IN LAYER   4 AT END OF TIME STEP  27 IN STRESS PERIOD    2
  ---------------------------------------------------------------------------

            1           2           3           4           5           6           7           8           9          10
 ........................................................................................................................
   1    9.997       8.887       7.776       6.666       5.555       4.445       3.335       2.224       1.114      3.3313E-03
   2    9.997       8.887       7.776       6.666       5.555       4.445       3.335       2.224       1.114      3.3313E-03
   3    9.997       8.887       7.776       6.666       5.555       4.445       3.335       2.224       1.114      3.3313E-03
   4    9.997       8.887       7.776       6.666       5.555       4.445       3.335       2.224       1.114      3.3313E-03
   5    9.997       8.887       7.776       6.666       5.555       4.445       3.335       2.224       1.114      3.3313E-03
   6    9.997       8.887       7.776       6.666       5.555       4.445       3.335       2.224       1.114      3.3313E-03
   7    9.997       8.887       7.776       6.666       5.555       4.445       3.335       2.224       1.114      3.3313E-03
   8    9.997       8.887       7.776       6.666       5.555       4.445       3.335       2.224       1.114      3.3313E-03
   9    9.997       8.887       7.776       6.666       5.555       4.445       3.335       2.224       1.114      3.3313E-03
  10    9.997       8.887       7.776       6.666       5.555       4.445       3.335       2.224       1.114      3.3313E-03

 HEAD WILL BE SAVED ON UNIT   51 AT END OF TIME STEP   27, STRESS PERIOD    2

 DRAWDOWN WILL BE SAVED ON UNIT   52 AT END OF TIME STEP   27, STRESS PERIOD    2
1
  VOLUMETRIC BUDGET FOR ENTIRE MODEL AT END OF TIME STEP   27, STRESS PERIOD   2
  ------------------------------------------------------------------------------

     CUMULATIVE VOLUMES      L**3       RATES FOR THIS TIME STEP      L**3/T
     ------------------                 ------------------------

           IN:                                      IN:
           ---                                      ---
             STORAGE =       1.0477E-08               STORAGE =           0.0000
       CONSTANT HEAD =           0.0000         CONSTANT HEAD =           0.0000
               WELLS =           0.0000                 WELLS =           0.0000
     HEAD DEP BOUNDS =       18656.6953       HEAD DEP BOUNDS =         666.3123

            TOTAL IN =       18656.6953              TOTAL IN =         666.3123

          OUT:                                     OUT:
          ----                                     ----
             STORAGE =       5.2387E-08               STORAGE =           0.0000
       CONSTANT HEAD =           0.0000         CONSTANT HEAD =           0.0000
               WELLS =           0.0000                 WELLS =           0.0000
     HEAD DEP BOUNDS =       18655.2715       HEAD DEP BOUNDS =         666.2595

           TOTAL OUT =       18655.2715             TOTAL OUT =         666.2595

            IN - OUT =           1.4238              IN - OUT =       5.2795E-02

 PERCENT DISCREPANCY =           0.01     PERCENT DISCREPANCY =           0.01






         TIME SUMMARY AT END OF TIME STEP   27 IN STRESS PERIOD    2
                    SECONDS     MINUTES      HOURS       DAYS        YEARS
                    -----------------------------------------------------------
   TIME STEP LENGTH  86400.      1440.0      24.000      1.0000     2.73785E-03
 STRESS PERIOD TIME 2.33280E+06  38880.      648.00      27.000     7.39220E-02
         TOTAL TIME 2.41920E+06  40320.      672.00      28.000     7.66598E-02
1
 
 SOLVING FOR HEAD 

 OUTPUT CONTROL FOR STRESS PERIOD    2   TIME STEP   28
    SAVE HEAD FOR ALL LAYERS
    SAVE DRAWDOWN FOR ALL LAYERS
    SAVE BUDGET
    PRINT HEAD FOR ALL LAYERS
    PRINT BUDGET
 UBDSV1 SAVING "         STORAGE" ON UNIT  53 AT TIME STEP 28, STRESS PERIOD   2
 UBDSV2 SAVING "   CONSTANT HEAD" ON UNIT  53 AT TIME STEP 28, STRESS PERIOD   2
 UBDSV1 SAVING "FLOW RIGHT FACE " ON UNIT  53 AT TIME STEP 28, STRESS PERIOD   2
 UBDSV1 SAVING "FLOW FRONT FACE " ON UNIT  53 AT TIME STEP 28, STRESS PERIOD   2
 UBDSV1 SAVING "FLOW LOWER FACE " ON UNIT  53 AT TIME STEP 28, STRESS PERIOD   2
1
              HEAD IN LAYER   1 AT END OF TIME STEP  28 IN STRESS PERIOD    2
  ---------------------------------------------------------------------------

            1           2           3           4           5           6           7           8           9          10
 ........................................................................................................................
   1    9.997       8.887       7.776       6.666       5.555       4.445       3.335       2.224       1.114      3.3313E-03
   2    9.997       8.887       7.776       6.666       5.555       4.445       3.335       2.224       1.114      3.3313E-03
   3    9.997       8.887       7.776       6.666       5.555       4.445       3.335       2.224       1.114      3.3313E-03
   4    9.997       8.887       7.776       6.666       5.555       4.445       3.335       2.224       1.114      3.3313E-03
   5    9.997       8.887       7.776       6.666       5.555       4.445       3.335       2.224       1.114      3.3313E-03
   6    9.997       8.887       7.776       6.666       5.555       4.445       3.335       2.224       1.114      3.3313E-03
   7    9.997       8.887       7.776       6.666       5.555       4.445       3.335       2.224       1.114      3.3313E-03
   8    9.997       8.887       7.776       6.666       5.555       4.445       3.335       2.224       1.114      3.3313E-03
   9    9.997       8.887       7.776       6.666       5.555       4.445       3.335       2.224       1.114      3.3313E-03
  10    9.997       8.887       7.776       6.666       5.555       4.445       3.335       2.224       1.114      3.3313E-03
1
              HEAD IN LAYER   2 AT END OF TIME STEP  28 IN STRESS PERIOD    2
  ---------------------------------------------------------------------------

            1           2           3           4           5           6           7           8           9          10
 ........................................................................................................................
   1    9.997       8.887       7.776       6.666       5.555       4.445       3.335       2.224       1.114      3.3313E-03
   2    9.997       8.887       7.776       6.666       5.555       4.445       3.335       2.224       1.114      3.3313E-03
   3    9.997       8.887       7.776       6.666       5.555       4.445       3.335       2.224       1.114      3.3313E-03
   4    9.997       8.887       7.776       6.666       5.555       4.445       3.335       2.224       1.114      3.3313E-03
   5    9.997       8.887       7.776       6.666       5.555       4.445       3.335       2.224       1.114      3.3313E-03
   6    9.997       8.887       7.776       6.666       5.555       4.445       3.335       2.224       1.114      3.3313E-03
   7    9.997       8.887       7.776       6.666       5.555       4.445       3.335       2.224       1.114      3.3313E-03
   8    9.997       8.887       7.776       6.666       5.555       4.445       3.335       2.224       1.114      3.3313E-03
   9    9.997       8.887       7.776       6.666       5.555       4.445       3.335       2.224       1.114      3.3313E-03
  10    9.997       8.887       7.776       6.666       5.555       4.445       3.335       2.224       1.114      3.3313E-03
1
              HEAD IN LAYER   3 AT END OF TIME STEP  28 IN STRESS PERIOD    2
  ---------------------------------------------------------------------------

            1           2           3           4           5           6           7           8           9          10
 ........................................................................................................................
   1    9.997       8.887       7.776       6.666       5.555       4.445       3.335       2.224       1.114      3.3313E-03
   2    9.997       8.887       7.776       6.666       5.555       4.445       3.335       2.224       1.114      3.3313E-03
   3    9.997       8.887       7.776       6.666       5.555       4.445       3.335       2.224       1.114      3.3313E-03
   4    9.997       8.887       7.776       6.666       5.555       4.445       3.335       2.224       1.114      3.3313E-03
   5    9.997       8.887       7.776       6.666       5.555       4.445       3.335       2.224       1.114      3.3313E-03
   6    9.997       8.887       7.776       6.666       5.555       4.445       3.335       2.224       1.114      3.3313E-03
   7    9.997       8.887       7.776       6.666       5.555       4.445       3.335       2.224       1.114      3.3313E-03
   8    9.997       8.887       7.776       6.666       5.555       4.445       3.335       2.224       1.114      3.3313E-03
   9    9.997       8.887       7.776       6.666       5.555       4.445       3.335       2.224       1.114      3.3313E-03
  10    9.997       8.887       7.776       6.666       5.555       4.445       3.335       2.224       1.114      3.3313E-03
1
              HEAD IN LAYER   4 AT END OF TIME STEP  28 IN STRESS PERIOD    2
  ---------------------------------------------------------------------------

            1           2           3           4           5           6           7           8           9          10
 ........................................................................................................................
   1    9.997       8.887       7.776       6.666       5.555       4.445       3.335       2.224       1.114      3.3313E-03
   2    9.997       8.887       7.776       6.666       5.555       4.445       3.335       2.224       1.114      3.3313E-03
   3    9.997       8.887       7.776       6.666       5.555       4.445       3.335       2.224       1.114      3.3313E-03
   4    9.997       8.887       7.776       6.666       5.555       4.445       3.335       2.224       1.114      3.3313E-03
   5    9.997       8.887       7.776       6.666       5.555       4.445       3.335       2.224       1.114      3.3313E-03
   6    9.997       8.887       7.776       6.666       5.555       4.445       3.335       2.224       1.114      3.3313E-03
   7    9.997       8.887       7.776       6.666       5.555       4.445       3.335       2.224       1.114      3.3313E-03
   8    9.997       8.887       7.776       6.666       5.555       4.445       3.335       2.224       1.114      3.3313E-03
   9    9.997       8.887       7.776       6.666       5.555       4.445       3.335       2.224       1.114      3.3313E-03
  10    9.997       8.887       7.776       6.666       5.555       4.445       3.335       2.224       1.114      3.3313E-03

 HEAD WILL BE SAVED ON UNIT   51 AT END OF TIME STEP   28, STRESS PERIOD    2

 DRAWDOWN WILL BE SAVED ON UNIT   52 AT END OF TIME STEP   28, STRESS PERIOD    2
1
  VOLUMETRIC BUDGET FOR ENTIRE MODEL AT END OF TIME STEP   28, STRESS PERIOD   2
  ------------------------------------------------------------------------------

     CUMULATIVE VOLUMES      L**3       RATES FOR THIS TIME STEP      L**3/T
     ------------------                 ------------------------

           IN:                                      IN:
           ---                                      ---
             STORAGE =       1.0477E-08               STORAGE =           0.0000
       CONSTANT HEAD =           0.0000         CONSTANT HEAD =           0.0000
               WELLS =           0.0000                 WELLS =           0.0000
     HEAD DEP BOUNDS =       19323.0078       HEAD DEP BOUNDS =         666.3123

            TOTAL IN =       19323.0078              TOTAL IN =         666.3123

          OUT:                                     OUT:
          ----                                     ----
             STORAGE =       5.2387E-08               STORAGE =           0.0000
       CONSTANT HEAD =           0.0000         CONSTANT HEAD =           0.0000
               WELLS =           0.0000                 WELLS =           0.0000
     HEAD DEP BOUNDS =       19321.5312       HEAD DEP BOUNDS =         666.2595

           TOTAL OUT =       19321.5312             TOTAL OUT =         666.2595

            IN - OUT =           1.4766              IN - OUT =       5.2795E-02

 PERCENT DISCREPANCY =           0.01     PERCENT DISCREPANCY =           0.01






         TIME SUMMARY AT END OF TIME STEP   28 IN STRESS PERIOD    2
                    SECONDS     MINUTES      HOURS       DAYS        YEARS
                    -----------------------------------------------------------
   TIME STEP LENGTH  86400.      1440.0      24.000      1.0000     2.73785E-03
 STRESS PERIOD TIME 2.41920E+06  40320.      672.00      28.000     7.66598E-02
         TOTAL TIME 2.50560E+06  41760.      696.00      29.000     7.93977E-02
1
 
 SOLVING FOR HEAD 

 OUTPUT CONTROL FOR STRESS PERIOD    2   TIME STEP   29
    SAVE HEAD FOR ALL LAYERS
    SAVE DRAWDOWN FOR ALL LAYERS
    SAVE BUDGET
    PRINT HEAD FOR ALL LAYERS
    PRINT BUDGET
 UBDSV1 SAVING "         STORAGE" ON UNIT  53 AT TIME STEP 29, STRESS PERIOD   2
 UBDSV2 SAVING "   CONSTANT HEAD" ON UNIT  53 AT TIME STEP 29, STRESS PERIOD   2
 UBDSV1 SAVING "FLOW RIGHT FACE " ON UNIT  53 AT TIME STEP 29, STRESS PERIOD   2
 UBDSV1 SAVING "FLOW FRONT FACE " ON UNIT  53 AT TIME STEP 29, STRESS PERIOD   2
 UBDSV1 SAVING "FLOW LOWER FACE " ON UNIT  53 AT TIME STEP 29, STRESS PERIOD   2
1
              HEAD IN LAYER   1 AT END OF TIME STEP  29 IN STRESS PERIOD    2
  ---------------------------------------------------------------------------

            1           2           3           4           5           6           7           8           9          10
 ........................................................................................................................
   1    9.997       8.887       7.776       6.666       5.555       4.445       3.335       2.224       1.114      3.3313E-03
   2    9.997       8.887       7.776       6.666       5.555       4.445       3.335       2.224       1.114      3.3313E-03
   3    9.997       8.887       7.776       6.666       5.555       4.445       3.335       2.224       1.114      3.3313E-03
   4    9.997       8.887       7.776       6.666       5.555       4.445       3.335       2.224       1.114      3.3313E-03
   5    9.997       8.887       7.776       6.666       5.555       4.445       3.335       2.224       1.114      3.3313E-03
   6    9.997       8.887       7.776       6.666       5.555       4.445       3.335       2.224       1.114      3.3313E-03
   7    9.997       8.887       7.776       6.666       5.555       4.445       3.335       2.224       1.114      3.3313E-03
   8    9.997       8.887       7.776       6.666       5.555       4.445       3.335       2.224       1.114      3.3313E-03
   9    9.997       8.887       7.776       6.666       5.555       4.445       3.335       2.224       1.114      3.3313E-03
  10    9.997       8.887       7.776       6.666       5.555       4.445       3.335       2.224       1.114      3.3313E-03
1
              HEAD IN LAYER   2 AT END OF TIME STEP  29 IN STRESS PERIOD    2
  ---------------------------------------------------------------------------

            1           2           3           4           5           6           7           8           9          10
 ........................................................................................................................
   1    9.997       8.887       7.776       6.666       5.555       4.445       3.335       2.224       1.114      3.3313E-03
   2    9.997       8.887       7.776       6.666       5.555       4.445       3.335       2.224       1.114      3.3313E-03
   3    9.997       8.887       7.776       6.666       5.555       4.445       3.335       2.224       1.114      3.3313E-03
   4    9.997       8.887       7.776       6.666       5.555       4.445       3.335       2.224       1.114      3.3313E-03
   5    9.997       8.887       7.776       6.666       5.555       4.445       3.335       2.224       1.114      3.3313E-03
   6    9.997       8.887       7.776       6.666       5.555       4.445       3.335       2.224       1.114      3.3313E-03
   7    9.997       8.887       7.776       6.666       5.555       4.445       3.335       2.224       1.114      3.3313E-03
   8    9.997       8.887       7.776       6.666       5.555       4.445       3.335       2.224       1.114      3.3313E-03
   9    9.997       8.887       7.776       6.666       5.555       4.445       3.335       2.224       1.114      3.3313E-03
  10    9.997       8.887       7.776       6.666       5.555       4.445       3.335       2.224       1.114      3.3313E-03
1
              HEAD IN LAYER   3 AT END OF TIME STEP  29 IN STRESS PERIOD    2
  ---------------------------------------------------------------------------

            1           2           3           4           5           6           7           8           9          10
 ........................................................................................................................
   1    9.997       8.887       7.776       6.666       5.555       4.445       3.335       2.224       1.114      3.3313E-03
   2    9.997       8.887       7.776       6.666       5.555       4.445       3.335       2.224       1.114      3.3313E-03
   3    9.997       8.887       7.776       6.666       5.555       4.445       3.335       2.224       1.114      3.3313E-03
   4    9.997       8.887       7.776       6.666       5.555       4.445       3.335       2.224       1.114      3.3313E-03
   5    9.997       8.887       7.776       6.666       5.555       4.445       3.335       2.224       1.114      3.3313E-03
   6    9.997       8.887       7.776       6.666       5.555       4.445       3.335       2.224       1.114      3.3313E-03
   7    9.997       8.887       7.776       6.666       5.555       4.445       3.335       2.224       1.114      3.3313E-03
   8    9.997       8.887       7.776       6.666       5.555       4.445       3.335       2.224       1.114      3.3313E-03
   9    9.997       8.887       7.776       6.666       5.555       4.445       3.335       2.224       1.114      3.3313E-03
  10    9.997       8.887       7.776       6.666       5.555       4.445       3.335       2.224       1.114      3.3313E-03
1
              HEAD IN LAYER   4 AT END OF TIME STEP  29 IN STRESS PERIOD    2
  ---------------------------------------------------------------------------

            1           2           3           4           5           6           7           8           9          10
 ........................................................................................................................
   1    9.997       8.887       7.776       6.666       5.555       4.445       3.335       2.224       1.114      3.3313E-03
   2    9.997       8.887       7.776       6.666       5.555       4.445       3.335       2.224       1.114      3.3313E-03
   3    9.997       8.887       7.776       6.666       5.555       4.445       3.335       2.224       1.114      3.3313E-03
   4    9.997       8.887       7.776       6.666       5.555       4.445       3.335       2.224       1.114      3.3313E-03
   5    9.997       8.887       7.776       6.666       5.555       4.445       3.335       2.224       1.114      3.3313E-03
   6    9.997       8.887       7.776       6.666       5.555       4.445       3.335       2.224       1.114      3.3313E-03
   7    9.997       8.887       7.776       6.666       5.555       4.445       3.335       2.224       1.114      3.3313E-03
   8    9.997       8.887       7.776       6.666       5.555       4.445       3.335       2.224       1.114      3.3313E-03
   9    9.997       8.887       7.776       6.666       5.555       4.445       3.335       2.224       1.114      3.3313E-03
  10    9.997       8.887       7.776       6.666       5.555       4.445       3.335       2.224       1.114      3.3313E-03

 HEAD WILL BE SAVED ON UNIT   51 AT END OF TIME STEP   29, STRESS PERIOD    2

 DRAWDOWN WILL BE SAVED ON UNIT   52 AT END OF TIME STEP   29, STRESS PERIOD    2
1
  VOLUMETRIC BUDGET FOR ENTIRE MODEL AT END OF TIME STEP   29, STRESS PERIOD   2
  ------------------------------------------------------------------------------

     CUMULATIVE VOLUMES      L**3       RATES FOR THIS TIME STEP      L**3/T
     ------------------                 ------------------------

           IN:                                      IN:
           ---                                      ---
             STORAGE =       1.0477E-08               STORAGE =           0.0000
       CONSTANT HEAD =           0.0000         CONSTANT HEAD =           0.0000
               WELLS =           0.0000                 WELLS =           0.0000
     HEAD DEP BOUNDS =       19989.3203       HEAD DEP BOUNDS =         666.3123

            TOTAL IN =       19989.3203              TOTAL IN =         666.3123

          OUT:                                     OUT:
          ----                                     ----
             STORAGE =       5.2387E-08               STORAGE =           0.0000
       CONSTANT HEAD =           0.0000         CONSTANT HEAD =           0.0000
               WELLS =           0.0000                 WELLS =           0.0000
     HEAD DEP BOUNDS =       19987.7910       HEAD DEP BOUNDS =         666.2595

           TOTAL OUT =       19987.7910             TOTAL OUT =         666.2595

            IN - OUT =           1.5293              IN - OUT =       5.2795E-02

 PERCENT DISCREPANCY =           0.01     PERCENT DISCREPANCY =           0.01






         TIME SUMMARY AT END OF TIME STEP   29 IN STRESS PERIOD    2
                    SECONDS     MINUTES      HOURS       DAYS        YEARS
                    -----------------------------------------------------------
   TIME STEP LENGTH  86400.      1440.0      24.000      1.0000     2.73785E-03
 STRESS PERIOD TIME 2.50560E+06  41760.      696.00      29.000     7.93977E-02
         TOTAL TIME 2.59200E+06  43200.      720.00      30.000     8.21355E-02
1
 
 SOLVING FOR HEAD 

 OUTPUT CONTROL FOR STRESS PERIOD    2   TIME STEP   30
    SAVE HEAD FOR ALL LAYERS
    SAVE DRAWDOWN FOR ALL LAYERS
    SAVE BUDGET
    PRINT HEAD FOR ALL LAYERS
    PRINT BUDGET
 UBDSV1 SAVING "         STORAGE" ON UNIT  53 AT TIME STEP 30, STRESS PERIOD   2
 UBDSV2 SAVING "   CONSTANT HEAD" ON UNIT  53 AT TIME STEP 30, STRESS PERIOD   2
 UBDSV1 SAVING "FLOW RIGHT FACE " ON UNIT  53 AT TIME STEP 30, STRESS PERIOD   2
 UBDSV1 SAVING "FLOW FRONT FACE " ON UNIT  53 AT TIME STEP 30, STRESS PERIOD   2
 UBDSV1 SAVING "FLOW LOWER FACE " ON UNIT  53 AT TIME STEP 30, STRESS PERIOD   2
1
              HEAD IN LAYER   1 AT END OF TIME STEP  30 IN STRESS PERIOD    2
  ---------------------------------------------------------------------------

            1           2           3           4           5           6           7           8           9          10
 ........................................................................................................................
   1    9.997       8.887       7.776       6.666       5.555       4.445       3.335       2.224       1.114      3.3313E-03
   2    9.997       8.887       7.776       6.666       5.555       4.445       3.335       2.224       1.114      3.3313E-03
   3    9.997       8.887       7.776       6.666       5.555       4.445       3.335       2.224       1.114      3.3313E-03
   4    9.997       8.887       7.776       6.666       5.555       4.445       3.335       2.224       1.114      3.3313E-03
   5    9.997       8.887       7.776       6.666       5.555       4.445       3.335       2.224       1.114      3.3313E-03
   6    9.997       8.887       7.776       6.666       5.555       4.445       3.335       2.224       1.114      3.3313E-03
   7    9.997       8.887       7.776       6.666       5.555       4.445       3.335       2.224       1.114      3.3313E-03
   8    9.997       8.887       7.776       6.666       5.555       4.445       3.335       2.224       1.114      3.3313E-03
   9    9.997       8.887       7.776       6.666       5.555       4.445       3.335       2.224       1.114      3.3313E-03
  10    9.997       8.887       7.776       6.666       5.555       4.445       3.335       2.224       1.114      3.3313E-03
1
              HEAD IN LAYER   2 AT END OF TIME STEP  30 IN STRESS PERIOD    2
  ---------------------------------------------------------------------------

            1           2           3           4           5           6           7           8           9          10
 ........................................................................................................................
   1    9.997       8.887       7.776       6.666       5.555       4.445       3.335       2.224       1.114      3.3313E-03
   2    9.997       8.887       7.776       6.666       5.555       4.445       3.335       2.224       1.114      3.3313E-03
   3    9.997       8.887       7.776       6.666       5.555       4.445       3.335       2.224       1.114      3.3313E-03
   4    9.997       8.887       7.776       6.666       5.555       4.445       3.335       2.224       1.114      3.3313E-03
   5    9.997       8.887       7.776       6.666       5.555       4.445       3.335       2.224       1.114      3.3313E-03
   6    9.997       8.887       7.776       6.666       5.555       4.445       3.335       2.224       1.114      3.3313E-03
   7    9.997       8.887       7.776       6.666       5.555       4.445       3.335       2.224       1.114      3.3313E-03
   8    9.997       8.887       7.776       6.666       5.555       4.445       3.335       2.224       1.114      3.3313E-03
   9    9.997       8.887       7.776       6.666       5.555       4.445       3.335       2.224       1.114      3.3313E-03
  10    9.997       8.887       7.776       6.666       5.555       4.445       3.335       2.224       1.114      3.3313E-03
1
              HEAD IN LAYER   3 AT END OF TIME STEP  30 IN STRESS PERIOD    2
  ---------------------------------------------------------------------------

            1           2           3           4           5           6           7           8           9          10
 ........................................................................................................................
   1    9.997       8.887       7.776       6.666       5.555       4.445       3.335       2.224       1.114      3.3313E-03
   2    9.997       8.887       7.776       6.666       5.555       4.445       3.335       2.224       1.114      3.3313E-03
   3    9.997       8.887       7.776       6.666       5.555       4.445       3.335       2.224       1.114      3.3313E-03
   4    9.997       8.887       7.776       6.666       5.555       4.445       3.335       2.224       1.114      3.3313E-03
   5    9.997       8.887       7.776       6.666       5.555       4.445       3.335       2.224       1.114      3.3313E-03
   6    9.997       8.887       7.776       6.666       5.555       4.445       3.335       2.224       1.114      3.3313E-03
   7    9.997       8.887       7.776       6.666       5.555       4.445       3.335       2.224       1.114      3.3313E-03
   8    9.997       8.887       7.776       6.666       5.555       4.445       3.335       2.224       1.114      3.3313E-03
   9    9.997       8.887       7.776       6.666       5.555       4.445       3.335       2.224       1.114      3.3313E-03
  10    9.997       8.887       7.776       6.666       5.555       4.445       3.335       2.224       1.114      3.3313E-03
1
              HEAD IN LAYER   4 AT END OF TIME STEP  30 IN STRESS PERIOD    2
  ---------------------------------------------------------------------------

            1           2           3           4           5           6           7           8           9          10
 ........................................................................................................................
   1    9.997       8.887       7.776       6.666       5.555       4.445       3.335       2.224       1.114      3.3313E-03
   2    9.997       8.887       7.776       6.666       5.555       4.445       3.335       2.224       1.114      3.3313E-03
   3    9.997       8.887       7.776       6.666       5.555       4.445       3.335       2.224       1.114      3.3313E-03
   4    9.997       8.887       7.776       6.666       5.555       4.445       3.335       2.224       1.114      3.3313E-03
   5    9.997       8.887       7.776       6.666       5.555       4.445       3.335       2.224       1.114      3.3313E-03
   6    9.997       8.887       7.776       6.666       5.555       4.445       3.335       2.224       1.114      3.3313E-03
   7    9.997       8.887       7.776       6.666       5.555       4.445       3.335       2.224       1.114      3.3313E-03
   8    9.997       8.887       7.776       6.666       5.555       4.445       3.335       2.224       1.114      3.3313E-03
   9    9.997       8.887       7.776       6.666       5.555       4.445       3.335       2.224       1.114      3.3313E-03
  10    9.997       8.887       7.776       6.666       5.555       4.445       3.335       2.224       1.114      3.3313E-03

 HEAD WILL BE SAVED ON UNIT   51 AT END OF TIME STEP   30, STRESS PERIOD    2

 DRAWDOWN WILL BE SAVED ON UNIT   52 AT END OF TIME STEP   30, STRESS PERIOD    2
1
  VOLUMETRIC BUDGET FOR ENTIRE MODEL AT END OF TIME STEP   30, STRESS PERIOD   2
  ------------------------------------------------------------------------------

     CUMULATIVE VOLUMES      L**3       RATES FOR THIS TIME STEP      L**3/T
     ------------------                 ------------------------

           IN:                                      IN:
           ---                                      ---
             STORAGE =       1.0477E-08               STORAGE =           0.0000
       CONSTANT HEAD =           0.0000         CONSTANT HEAD =           0.0000
               WELLS =           0.0000                 WELLS =           0.0000
     HEAD DEP BOUNDS =       20655.6328       HEAD DEP BOUNDS =         666.3123

            TOTAL IN =       20655.6328              TOTAL IN =         666.3123

          OUT:                                     OUT:
          ----                                     ----
             STORAGE =       5.2387E-08               STORAGE =           0.0000
       CONSTANT HEAD =           0.0000         CONSTANT HEAD =           0.0000
               WELLS =           0.0000                 WELLS =           0.0000
     HEAD DEP BOUNDS =       20654.0508       HEAD DEP BOUNDS =         666.2595

           TOTAL OUT =       20654.0508             TOTAL OUT =         666.2595

            IN - OUT =           1.5820              IN - OUT =       5.2795E-02

 PERCENT DISCREPANCY =           0.01     PERCENT DISCREPANCY =           0.01






         TIME SUMMARY AT END OF TIME STEP   30 IN STRESS PERIOD    2
                    SECONDS     MINUTES      HOURS       DAYS        YEARS
                    -----------------------------------------------------------
   TIME STEP LENGTH  86400.      1440.0      24.000      1.0000     2.73785E-03
 STRESS PERIOD TIME 2.59200E+06  43200.      720.00      30.000     8.21355E-02
         TOTAL TIME 2.67840E+06  44640.      744.00      31.000     8.48734E-02
1
 
 SOLVING FOR HEAD 

 OUTPUT CONTROL FOR STRESS PERIOD    2   TIME STEP   31
    SAVE HEAD FOR ALL LAYERS
    SAVE DRAWDOWN FOR ALL LAYERS
    SAVE BUDGET
    PRINT HEAD FOR ALL LAYERS
    PRINT BUDGET
 UBDSV1 SAVING "         STORAGE" ON UNIT  53 AT TIME STEP 31, STRESS PERIOD   2
 UBDSV2 SAVING "   CONSTANT HEAD" ON UNIT  53 AT TIME STEP 31, STRESS PERIOD   2
 UBDSV1 SAVING "FLOW RIGHT FACE " ON UNIT  53 AT TIME STEP 31, STRESS PERIOD   2
 UBDSV1 SAVING "FLOW FRONT FACE " ON UNIT  53 AT TIME STEP 31, STRESS PERIOD   2
 UBDSV1 SAVING "FLOW LOWER FACE " ON UNIT  53 AT TIME STEP 31, STRESS PERIOD   2
1
              HEAD IN LAYER   1 AT END OF TIME STEP  31 IN STRESS PERIOD    2
  ---------------------------------------------------------------------------

            1           2           3           4           5           6           7           8           9          10
 ........................................................................................................................
   1    9.997       8.887       7.776       6.666       5.555       4.445       3.335       2.224       1.114      3.3313E-03
   2    9.997       8.887       7.776       6.666       5.555       4.445       3.335       2.224       1.114      3.3313E-03
   3    9.997       8.887       7.776       6.666       5.555       4.445       3.335       2.224       1.114      3.3313E-03
   4    9.997       8.887       7.776       6.666       5.555       4.445       3.335       2.224       1.114      3.3313E-03
   5    9.997       8.887       7.776       6.666       5.555       4.445       3.335       2.224       1.114      3.3313E-03
   6    9.997       8.887       7.776       6.666       5.555       4.445       3.335       2.224       1.114      3.3313E-03
   7    9.997       8.887       7.776       6.666       5.555       4.445       3.335       2.224       1.114      3.3313E-03
   8    9.997       8.887       7.776       6.666       5.555       4.445       3.335       2.224       1.114      3.3313E-03
   9    9.997       8.887       7.776       6.666       5.555       4.445       3.335       2.224       1.114      3.3313E-03
  10    9.997       8.887       7.776       6.666       5.555       4.445       3.335       2.224       1.114      3.3313E-03
1
              HEAD IN LAYER   2 AT END OF TIME STEP  31 IN STRESS PERIOD    2
  ---------------------------------------------------------------------------

            1           2           3           4           5           6           7           8           9          10
 ........................................................................................................................
   1    9.997       8.887       7.776       6.666       5.555       4.445       3.335       2.224       1.114      3.3313E-03
   2    9.997       8.887       7.776       6.666       5.555       4.445       3.335       2.224       1.114      3.3313E-03
   3    9.997       8.887       7.776       6.666       5.555       4.445       3.335       2.224       1.114      3.3313E-03
   4    9.997       8.887       7.776       6.666       5.555       4.445       3.335       2.224       1.114      3.3313E-03
   5    9.997       8.887       7.776       6.666       5.555       4.445       3.335       2.224       1.114      3.3313E-03
   6    9.997       8.887       7.776       6.666       5.555       4.445       3.335       2.224       1.114      3.3313E-03
   7    9.997       8.887       7.776       6.666       5.555       4.445       3.335       2.224       1.114      3.3313E-03
   8    9.997       8.887       7.776       6.666       5.555       4.445       3.335       2.224       1.114      3.3313E-03
   9    9.997       8.887       7.776       6.666       5.555       4.445       3.335       2.224       1.114      3.3313E-03
  10    9.997       8.887       7.776       6.666       5.555       4.445       3.335       2.224       1.114      3.3313E-03
1
              HEAD IN LAYER   3 AT END OF TIME STEP  31 IN STRESS PERIOD    2
  ---------------------------------------------------------------------------

            1           2           3           4           5           6           7           8           9          10
 ........................................................................................................................
   1    9.997       8.887       7.776       6.666       5.555       4.445       3.335       2.224       1.114      3.3313E-03
   2    9.997       8.887       7.776       6.666       5.555       4.445       3.335       2.224       1.114      3.3313E-03
   3    9.997       8.887       7.776       6.666       5.555       4.445       3.335       2.224       1.114      3.3313E-03
   4    9.997       8.887       7.776       6.666       5.555       4.445       3.335       2.224       1.114      3.3313E-03
   5    9.997       8.887       7.776       6.666       5.555       4.445       3.335       2.224       1.114      3.3313E-03
   6    9.997       8.887       7.776       6.666       5.555       4.445       3.335       2.224       1.114      3.3313E-03
   7    9.997       8.887       7.776       6.666       5.555       4.445       3.335       2.224       1.114      3.3313E-03
   8    9.997       8.887       7.776       6.666       5.555       4.445       3.335       2.224       1.114      3.3313E-03
   9    9.997       8.887       7.776       6.666       5.555       4.445       3.335       2.224       1.114      3.3313E-03
  10    9.997       8.887       7.776       6.666       5.555       4.445       3.335       2.224       1.114      3.3313E-03
1
              HEAD IN LAYER   4 AT END OF TIME STEP  31 IN STRESS PERIOD    2
  ---------------------------------------------------------------------------

            1           2           3           4           5           6           7           8           9          10
 ........................................................................................................................
   1    9.997       8.887       7.776       6.666       5.555       4.445       3.335       2.224       1.114      3.3313E-03
   2    9.997       8.887       7.776       6.666       5.555       4.445       3.335       2.224       1.114      3.3313E-03
   3    9.997       8.887       7.776       6.666       5.555       4.445       3.335       2.224       1.114      3.3313E-03
   4    9.997       8.887       7.776       6.666       5.555       4.445       3.335       2.224       1.114      3.3313E-03
   5    9.997       8.887       7.776       6.666       5.555       4.445       3.335       2.224       1.114      3.3313E-03
   6    9.997       8.887       7.776       6.666       5.555       4.445       3.335       2.224       1.114      3.3313E-03
   7    9.997       8.887       7.776       6.666       5.555       4.445       3.335       2.224       1.114      3.3313E-03
   8    9.997       8.887       7.776       6.666       5.555       4.445       3.335       2.224       1.114      3.3313E-03
   9    9.997       8.887       7.776       6.666       5.555       4.445       3.335       2.224       1.114      3.3313E-03
  10    9.997       8.887       7.776       6.666       5.555       4.445       3.335       2.224       1.114      3.3313E-03

 HEAD WILL BE SAVED ON UNIT   51 AT END OF TIME STEP   31, STRESS PERIOD    2

 DRAWDOWN WILL BE SAVED ON UNIT   52 AT END OF TIME STEP   31, STRESS PERIOD    2
1
  VOLUMETRIC BUDGET FOR ENTIRE MODEL AT END OF TIME STEP   31, STRESS PERIOD   2
  ------------------------------------------------------------------------------

     CUMULATIVE VOLUMES      L**3       RATES FOR THIS TIME STEP      L**3/T
     ------------------                 ------------------------

           IN:                                      IN:
           ---                                      ---
             STORAGE =       1.0477E-08               STORAGE =           0.0000
       CONSTANT HEAD =           0.0000         CONSTANT HEAD =           0.0000
               WELLS =           0.0000                 WELLS =           0.0000
     HEAD DEP BOUNDS =       21321.9453       HEAD DEP BOUNDS =         666.3123

            TOTAL IN =       21321.9453              TOTAL IN =         666.3123

          OUT:                                     OUT:
          ----                                     ----
             STORAGE =       5.2387E-08               STORAGE =           0.0000
       CONSTANT HEAD =           0.0000         CONSTANT HEAD =           0.0000
               WELLS =           0.0000                 WELLS =           0.0000
     HEAD DEP BOUNDS =       21320.3105       HEAD DEP BOUNDS =         666.2595

           TOTAL OUT =       21320.3105             TOTAL OUT =         666.2595

            IN - OUT =           1.6348              IN - OUT =       5.2795E-02

 PERCENT DISCREPANCY =           0.01     PERCENT DISCREPANCY =           0.01






         TIME SUMMARY AT END OF TIME STEP   31 IN STRESS PERIOD    2
                    SECONDS     MINUTES      HOURS       DAYS        YEARS
                    -----------------------------------------------------------
   TIME STEP LENGTH  86400.      1440.0      24.000      1.0000     2.73785E-03
 STRESS PERIOD TIME 2.67840E+06  44640.      744.00      31.000     8.48734E-02
         TOTAL TIME 2.76480E+06  46080.      768.00      32.000     8.76112E-02
1
 
 SOLVING FOR HEAD 

 OUTPUT CONTROL FOR STRESS PERIOD    2   TIME STEP   32
    SAVE HEAD FOR ALL LAYERS
    SAVE DRAWDOWN FOR ALL LAYERS
    SAVE BUDGET
    PRINT HEAD FOR ALL LAYERS
    PRINT BUDGET
 UBDSV1 SAVING "         STORAGE" ON UNIT  53 AT TIME STEP 32, STRESS PERIOD   2
 UBDSV2 SAVING "   CONSTANT HEAD" ON UNIT  53 AT TIME STEP 32, STRESS PERIOD   2
 UBDSV1 SAVING "FLOW RIGHT FACE " ON UNIT  53 AT TIME STEP 32, STRESS PERIOD   2
 UBDSV1 SAVING "FLOW FRONT FACE " ON UNIT  53 AT TIME STEP 32, STRESS PERIOD   2
 UBDSV1 SAVING "FLOW LOWER FACE " ON UNIT  53 AT TIME STEP 32, STRESS PERIOD   2
1
              HEAD IN LAYER   1 AT END OF TIME STEP  32 IN STRESS PERIOD    2
  ---------------------------------------------------------------------------

            1           2           3           4           5           6           7           8           9          10
 ........................................................................................................................
   1    9.997       8.887       7.776       6.666       5.555       4.445       3.335       2.224       1.114      3.3313E-03
   2    9.997       8.887       7.776       6.666       5.555       4.445       3.335       2.224       1.114      3.3313E-03
   3    9.997       8.887       7.776       6.666       5.555       4.445       3.335       2.224       1.114      3.3313E-03
   4    9.997       8.887       7.776       6.666       5.555       4.445       3.335       2.224       1.114      3.3313E-03
   5    9.997       8.887       7.776       6.666       5.555       4.445       3.335       2.224       1.114      3.3313E-03
   6    9.997       8.887       7.776       6.666       5.555       4.445       3.335       2.224       1.114      3.3313E-03
   7    9.997       8.887       7.776       6.666       5.555       4.445       3.335       2.224       1.114      3.3313E-03
   8    9.997       8.887       7.776       6.666       5.555       4.445       3.335       2.224       1.114      3.3313E-03
   9    9.997       8.887       7.776       6.666       5.555       4.445       3.335       2.224       1.114      3.3313E-03
  10    9.997       8.887       7.776       6.666       5.555       4.445       3.335       2.224       1.114      3.3313E-03
1
              HEAD IN LAYER   2 AT END OF TIME STEP  32 IN STRESS PERIOD    2
  ---------------------------------------------------------------------------

            1           2           3           4           5           6           7           8           9          10
 ........................................................................................................................
   1    9.997       8.887       7.776       6.666       5.555       4.445       3.335       2.224       1.114      3.3313E-03
   2    9.997       8.887       7.776       6.666       5.555       4.445       3.335       2.224       1.114      3.3313E-03
   3    9.997       8.887       7.776       6.666       5.555       4.445       3.335       2.224       1.114      3.3313E-03
   4    9.997       8.887       7.776       6.666       5.555       4.445       3.335       2.224       1.114      3.3313E-03
   5    9.997       8.887       7.776       6.666       5.555       4.445       3.335       2.224       1.114      3.3313E-03
   6    9.997       8.887       7.776       6.666       5.555       4.445       3.335       2.224       1.114      3.3313E-03
   7    9.997       8.887       7.776       6.666       5.555       4.445       3.335       2.224       1.114      3.3313E-03
   8    9.997       8.887       7.776       6.666       5.555       4.445       3.335       2.224       1.114      3.3313E-03
   9    9.997       8.887       7.776       6.666       5.555       4.445       3.335       2.224       1.114      3.3313E-03
  10    9.997       8.887       7.776       6.666       5.555       4.445       3.335       2.224       1.114      3.3313E-03
1
              HEAD IN LAYER   3 AT END OF TIME STEP  32 IN STRESS PERIOD    2
  ---------------------------------------------------------------------------

            1           2           3           4           5           6           7           8           9          10
 ........................................................................................................................
   1    9.997       8.887       7.776       6.666       5.555       4.445       3.335       2.224       1.114      3.3313E-03
   2    9.997       8.887       7.776       6.666       5.555       4.445       3.335       2.224       1.114      3.3313E-03
   3    9.997       8.887       7.776       6.666       5.555       4.445       3.335       2.224       1.114      3.3313E-03
   4    9.997       8.887       7.776       6.666       5.555       4.445       3.335       2.224       1.114      3.3313E-03
   5    9.997       8.887       7.776       6.666       5.555       4.445       3.335       2.224       1.114      3.3313E-03
   6    9.997       8.887       7.776       6.666       5.555       4.445       3.335       2.224       1.114      3.3313E-03
   7    9.997       8.887       7.776       6.666       5.555       4.445       3.335       2.224       1.114      3.3313E-03
   8    9.997       8.887       7.776       6.666       5.555       4.445       3.335       2.224       1.114      3.3313E-03
   9    9.997       8.887       7.776       6.666       5.555       4.445       3.335       2.224       1.114      3.3313E-03
  10    9.997       8.887       7.776       6.666       5.555       4.445       3.335       2.224       1.114      3.3313E-03
1
              HEAD IN LAYER   4 AT END OF TIME STEP  32 IN STRESS PERIOD    2
  ---------------------------------------------------------------------------

            1           2           3           4           5           6           7           8           9          10
 ........................................................................................................................
   1    9.997       8.887       7.776       6.666       5.555       4.445       3.335       2.224       1.114      3.3313E-03
   2    9.997       8.887       7.776       6.666       5.555       4.445       3.335       2.224       1.114      3.3313E-03
   3    9.997       8.887       7.776       6.666       5.555       4.445       3.335       2.224       1.114      3.3313E-03
   4    9.997       8.887       7.776       6.666       5.555       4.445       3.335       2.224       1.114      3.3313E-03
   5    9.997       8.887       7.776       6.666       5.555       4.445       3.335       2.224       1.114      3.3313E-03
   6    9.997       8.887       7.776       6.666       5.555       4.445       3.335       2.224       1.114      3.3313E-03
   7    9.997       8.887       7.776       6.666       5.555       4.445       3.335       2.224       1.114      3.3313E-03
   8    9.997       8.887       7.776       6.666       5.555       4.445       3.335       2.224       1.114      3.3313E-03
   9    9.997       8.887       7.776       6.666       5.555       4.445       3.335       2.224       1.114      3.3313E-03
  10    9.997       8.887       7.776       6.666       5.555       4.445       3.335       2.224       1.114      3.3313E-03

 HEAD WILL BE SAVED ON UNIT   51 AT END OF TIME STEP   32, STRESS PERIOD    2

 DRAWDOWN WILL BE SAVED ON UNIT   52 AT END OF TIME STEP   32, STRESS PERIOD    2
1
  VOLUMETRIC BUDGET FOR ENTIRE MODEL AT END OF TIME STEP   32, STRESS PERIOD   2
  ------------------------------------------------------------------------------

     CUMULATIVE VOLUMES      L**3       RATES FOR THIS TIME STEP      L**3/T
     ------------------                 ------------------------

           IN:                                      IN:
           ---                                      ---
             STORAGE =       1.0477E-08               STORAGE =           0.0000
       CONSTANT HEAD =           0.0000         CONSTANT HEAD =           0.0000
               WELLS =           0.0000                 WELLS =           0.0000
     HEAD DEP BOUNDS =       21988.2578       HEAD DEP BOUNDS =         666.3123

            TOTAL IN =       21988.2578              TOTAL IN =         666.3123

          OUT:                                     OUT:
          ----                                     ----
             STORAGE =       5.2387E-08               STORAGE =           0.0000
       CONSTANT HEAD =           0.0000         CONSTANT HEAD =           0.0000
               WELLS =           0.0000                 WELLS =           0.0000
     HEAD DEP BOUNDS =       21986.5703       HEAD DEP BOUNDS =         666.2595

           TOTAL OUT =       21986.5703             TOTAL OUT =         666.2595

            IN - OUT =           1.6875              IN - OUT =       5.2795E-02

 PERCENT DISCREPANCY =           0.01     PERCENT DISCREPANCY =           0.01






         TIME SUMMARY AT END OF TIME STEP   32 IN STRESS PERIOD    2
                    SECONDS     MINUTES      HOURS       DAYS        YEARS
                    -----------------------------------------------------------
   TIME STEP LENGTH  86400.      1440.0      24.000      1.0000     2.73785E-03
 STRESS PERIOD TIME 2.76480E+06  46080.      768.00      32.000     8.76112E-02
         TOTAL TIME 2.85120E+06  47520.      792.00      33.000     9.03491E-02
1
 
 SOLVING FOR HEAD 

 OUTPUT CONTROL FOR STRESS PERIOD    2   TIME STEP   33
    SAVE HEAD FOR ALL LAYERS
    SAVE DRAWDOWN FOR ALL LAYERS
    SAVE BUDGET
    PRINT HEAD FOR ALL LAYERS
    PRINT BUDGET
 UBDSV1 SAVING "         STORAGE" ON UNIT  53 AT TIME STEP 33, STRESS PERIOD   2
 UBDSV2 SAVING "   CONSTANT HEAD" ON UNIT  53 AT TIME STEP 33, STRESS PERIOD   2
 UBDSV1 SAVING "FLOW RIGHT FACE " ON UNIT  53 AT TIME STEP 33, STRESS PERIOD   2
 UBDSV1 SAVING "FLOW FRONT FACE " ON UNIT  53 AT TIME STEP 33, STRESS PERIOD   2
 UBDSV1 SAVING "FLOW LOWER FACE " ON UNIT  53 AT TIME STEP 33, STRESS PERIOD   2
1
              HEAD IN LAYER   1 AT END OF TIME STEP  33 IN STRESS PERIOD    2
  ---------------------------------------------------------------------------

            1           2           3           4           5           6           7           8           9          10
 ........................................................................................................................
   1    9.997       8.887       7.776       6.666       5.555       4.445       3.335       2.224       1.114      3.3313E-03
   2    9.997       8.887       7.776       6.666       5.555       4.445       3.335       2.224       1.114      3.3313E-03
   3    9.997       8.887       7.776       6.666       5.555       4.445       3.335       2.224       1.114      3.3313E-03
   4    9.997       8.887       7.776       6.666       5.555       4.445       3.335       2.224       1.114      3.3313E-03
   5    9.997       8.887       7.776       6.666       5.555       4.445       3.335       2.224       1.114      3.3313E-03
   6    9.997       8.887       7.776       6.666       5.555       4.445       3.335       2.224       1.114      3.3313E-03
   7    9.997       8.887       7.776       6.666       5.555       4.445       3.335       2.224       1.114      3.3313E-03
   8    9.997       8.887       7.776       6.666       5.555       4.445       3.335       2.224       1.114      3.3313E-03
   9    9.997       8.887       7.776       6.666       5.555       4.445       3.335       2.224       1.114      3.3313E-03
  10    9.997       8.887       7.776       6.666       5.555       4.445       3.335       2.224       1.114      3.3313E-03
1
              HEAD IN LAYER   2 AT END OF TIME STEP  33 IN STRESS PERIOD    2
  ---------------------------------------------------------------------------

            1           2           3           4           5           6           7           8           9          10
 ........................................................................................................................
   1    9.997       8.887       7.776       6.666       5.555       4.445       3.335       2.224       1.114      3.3313E-03
   2    9.997       8.887       7.776       6.666       5.555       4.445       3.335       2.224       1.114      3.3313E-03
   3    9.997       8.887       7.776       6.666       5.555       4.445       3.335       2.224       1.114      3.3313E-03
   4    9.997       8.887       7.776       6.666       5.555       4.445       3.335       2.224       1.114      3.3313E-03
   5    9.997       8.887       7.776       6.666       5.555       4.445       3.335       2.224       1.114      3.3313E-03
   6    9.997       8.887       7.776       6.666       5.555       4.445       3.335       2.224       1.114      3.3313E-03
   7    9.997       8.887       7.776       6.666       5.555       4.445       3.335       2.224       1.114      3.3313E-03
   8    9.997       8.887       7.776       6.666       5.555       4.445       3.335       2.224       1.114      3.3313E-03
   9    9.997       8.887       7.776       6.666       5.555       4.445       3.335       2.224       1.114      3.3313E-03
  10    9.997       8.887       7.776       6.666       5.555       4.445       3.335       2.224       1.114      3.3313E-03
1
              HEAD IN LAYER   3 AT END OF TIME STEP  33 IN STRESS PERIOD    2
  ---------------------------------------------------------------------------

            1           2           3           4           5           6           7           8           9          10
 ........................................................................................................................
   1    9.997       8.887       7.776       6.666       5.555       4.445       3.335       2.224       1.114      3.3313E-03
   2    9.997       8.887       7.776       6.666       5.555       4.445       3.335       2.224       1.114      3.3313E-03
   3    9.997       8.887       7.776       6.666       5.555       4.445       3.335       2.224       1.114      3.3313E-03
   4    9.997       8.887       7.776       6.666       5.555       4.445       3.335       2.224       1.114      3.3313E-03
   5    9.997       8.887       7.776       6.666       5.555       4.445       3.335       2.224       1.114      3.3313E-03
   6    9.997       8.887       7.776       6.666       5.555       4.445       3.335       2.224       1.114      3.3313E-03
   7    9.997       8.887       7.776       6.666       5.555       4.445       3.335       2.224       1.114      3.3313E-03
   8    9.997       8.887       7.776       6.666       5.555       4.445       3.335       2.224       1.114      3.3313E-03
   9    9.997       8.887       7.776       6.666       5.555       4.445       3.335       2.224       1.114      3.3313E-03
  10    9.997       8.887       7.776       6.666       5.555       4.445       3.335       2.224       1.114      3.3313E-03
1
              HEAD IN LAYER   4 AT END OF TIME STEP  33 IN STRESS PERIOD    2
  ---------------------------------------------------------------------------

            1           2           3           4           5           6           7           8           9          10
 ........................................................................................................................
   1    9.997       8.887       7.776       6.666       5.555       4.445       3.335       2.224       1.114      3.3313E-03
   2    9.997       8.887       7.776       6.666       5.555       4.445       3.335       2.224       1.114      3.3313E-03
   3    9.997       8.887       7.776       6.666       5.555       4.445       3.335       2.224       1.114      3.3313E-03
   4    9.997       8.887       7.776       6.666       5.555       4.445       3.335       2.224       1.114      3.3313E-03
   5    9.997       8.887       7.776       6.666       5.555       4.445       3.335       2.224       1.114      3.3313E-03
   6    9.997       8.887       7.776       6.666       5.555       4.445       3.335       2.224       1.114      3.3313E-03
   7    9.997       8.887       7.776       6.666       5.555       4.445       3.335       2.224       1.114      3.3313E-03
   8    9.997       8.887       7.776       6.666       5.555       4.445       3.335       2.224       1.114      3.3313E-03
   9    9.997       8.887       7.776       6.666       5.555       4.445       3.335       2.224       1.114      3.3313E-03
  10    9.997       8.887       7.776       6.666       5.555       4.445       3.335       2.224       1.114      3.3313E-03

 HEAD WILL BE SAVED ON UNIT   51 AT END OF TIME STEP   33, STRESS PERIOD    2

 DRAWDOWN WILL BE SAVED ON UNIT   52 AT END OF TIME STEP   33, STRESS PERIOD    2
1
  VOLUMETRIC BUDGET FOR ENTIRE MODEL AT END OF TIME STEP   33, STRESS PERIOD   2
  ------------------------------------------------------------------------------

     CUMULATIVE VOLUMES      L**3       RATES FOR THIS TIME STEP      L**3/T
     ------------------                 ------------------------

           IN:                                      IN:
           ---                                      ---
             STORAGE =       1.0477E-08               STORAGE =           0.0000
       CONSTANT HEAD =           0.0000         CONSTANT HEAD =           0.0000
               WELLS =           0.0000                 WELLS =           0.0000
     HEAD DEP BOUNDS =       22654.5703       HEAD DEP BOUNDS =         666.3123

            TOTAL IN =       22654.5703              TOTAL IN =         666.3123

          OUT:                                     OUT:
          ----                                     ----
             STORAGE =       5.2387E-08               STORAGE =           0.0000
       CONSTANT HEAD =           0.0000         CONSTANT HEAD =           0.0000
               WELLS =           0.0000                 WELLS =           0.0000
     HEAD DEP BOUNDS =       22652.8301       HEAD DEP BOUNDS =         666.2595

           TOTAL OUT =       22652.8301             TOTAL OUT =         666.2595

            IN - OUT =           1.7402              IN - OUT =       5.2795E-02

 PERCENT DISCREPANCY =           0.01     PERCENT DISCREPANCY =           0.01






         TIME SUMMARY AT END OF TIME STEP   33 IN STRESS PERIOD    2
                    SECONDS     MINUTES      HOURS       DAYS        YEARS
                    -----------------------------------------------------------
   TIME STEP LENGTH  86400.      1440.0      24.000      1.0000     2.73785E-03
 STRESS PERIOD TIME 2.85120E+06  47520.      792.00      33.000     9.03491E-02
         TOTAL TIME 2.93760E+06  48960.      816.00      34.000     9.30869E-02
1
 
 SOLVING FOR HEAD 

 OUTPUT CONTROL FOR STRESS PERIOD    2   TIME STEP   34
    SAVE HEAD FOR ALL LAYERS
    SAVE DRAWDOWN FOR ALL LAYERS
    SAVE BUDGET
    PRINT HEAD FOR ALL LAYERS
    PRINT BUDGET
 UBDSV1 SAVING "         STORAGE" ON UNIT  53 AT TIME STEP 34, STRESS PERIOD   2
 UBDSV2 SAVING "   CONSTANT HEAD" ON UNIT  53 AT TIME STEP 34, STRESS PERIOD   2
 UBDSV1 SAVING "FLOW RIGHT FACE " ON UNIT  53 AT TIME STEP 34, STRESS PERIOD   2
 UBDSV1 SAVING "FLOW FRONT FACE " ON UNIT  53 AT TIME STEP 34, STRESS PERIOD   2
 UBDSV1 SAVING "FLOW LOWER FACE " ON UNIT  53 AT TIME STEP 34, STRESS PERIOD   2
1
              HEAD IN LAYER   1 AT END OF TIME STEP  34 IN STRESS PERIOD    2
  ---------------------------------------------------------------------------

            1           2           3           4           5           6           7           8           9          10
 ........................................................................................................................
   1    9.997       8.887       7.776       6.666       5.555       4.445       3.335       2.224       1.114      3.3313E-03
   2    9.997       8.887       7.776       6.666       5.555       4.445       3.335       2.224       1.114      3.3313E-03
   3    9.997       8.887       7.776       6.666       5.555       4.445       3.335       2.224       1.114      3.3313E-03
   4    9.997       8.887       7.776       6.666       5.555       4.445       3.335       2.224       1.114      3.3313E-03
   5    9.997       8.887       7.776       6.666       5.555       4.445       3.335       2.224       1.114      3.3313E-03
   6    9.997       8.887       7.776       6.666       5.555       4.445       3.335       2.224       1.114      3.3313E-03
   7    9.997       8.887       7.776       6.666       5.555       4.445       3.335       2.224       1.114      3.3313E-03
   8    9.997       8.887       7.776       6.666       5.555       4.445       3.335       2.224       1.114      3.3313E-03
   9    9.997       8.887       7.776       6.666       5.555       4.445       3.335       2.224       1.114      3.3313E-03
  10    9.997       8.887       7.776       6.666       5.555       4.445       3.335       2.224       1.114      3.3313E-03
1
              HEAD IN LAYER   2 AT END OF TIME STEP  34 IN STRESS PERIOD    2
  ---------------------------------------------------------------------------

            1           2           3           4           5           6           7           8           9          10
 ........................................................................................................................
   1    9.997       8.887       7.776       6.666       5.555       4.445       3.335       2.224       1.114      3.3313E-03
   2    9.997       8.887       7.776       6.666       5.555       4.445       3.335       2.224       1.114      3.3313E-03
   3    9.997       8.887       7.776       6.666       5.555       4.445       3.335       2.224       1.114      3.3313E-03
   4    9.997       8.887       7.776       6.666       5.555       4.445       3.335       2.224       1.114      3.3313E-03
   5    9.997       8.887       7.776       6.666       5.555       4.445       3.335       2.224       1.114      3.3313E-03
   6    9.997       8.887       7.776       6.666       5.555       4.445       3.335       2.224       1.114      3.3313E-03
   7    9.997       8.887       7.776       6.666       5.555       4.445       3.335       2.224       1.114      3.3313E-03
   8    9.997       8.887       7.776       6.666       5.555       4.445       3.335       2.224       1.114      3.3313E-03
   9    9.997       8.887       7.776       6.666       5.555       4.445       3.335       2.224       1.114      3.3313E-03
  10    9.997       8.887       7.776       6.666       5.555       4.445       3.335       2.224       1.114      3.3313E-03
1
              HEAD IN LAYER   3 AT END OF TIME STEP  34 IN STRESS PERIOD    2
  ---------------------------------------------------------------------------

            1           2           3           4           5           6           7           8           9          10
 ........................................................................................................................
   1    9.997       8.887       7.776       6.666       5.555       4.445       3.335       2.224       1.114      3.3313E-03
   2    9.997       8.887       7.776       6.666       5.555       4.445       3.335       2.224       1.114      3.3313E-03
   3    9.997       8.887       7.776       6.666       5.555       4.445       3.335       2.224       1.114      3.3313E-03
   4    9.997       8.887       7.776       6.666       5.555       4.445       3.335       2.224       1.114      3.3313E-03
   5    9.997       8.887       7.776       6.666       5.555       4.445       3.335       2.224       1.114      3.3313E-03
   6    9.997       8.887       7.776       6.666       5.555       4.445       3.335       2.224       1.114      3.3313E-03
   7    9.997       8.887       7.776       6.666       5.555       4.445       3.335       2.224       1.114      3.3313E-03
   8    9.997       8.887       7.776       6.666       5.555       4.445       3.335       2.224       1.114      3.3313E-03
   9    9.997       8.887       7.776       6.666       5.555       4.445       3.335       2.224       1.114      3.3313E-03
  10    9.997       8.887       7.776       6.666       5.555       4.445       3.335       2.224       1.114      3.3313E-03
1
              HEAD IN LAYER   4 AT END OF TIME STEP  34 IN STRESS PERIOD    2
  ---------------------------------------------------------------------------

            1           2           3           4           5           6           7           8           9          10
 ........................................................................................................................
   1    9.997       8.887       7.776       6.666       5.555       4.445       3.335       2.224       1.114      3.3313E-03
   2    9.997       8.887       7.776       6.666       5.555       4.445       3.335       2.224       1.114      3.3313E-03
   3    9.997       8.887       7.776       6.666       5.555       4.445       3.335       2.224       1.114      3.3313E-03
   4    9.997       8.887       7.776       6.666       5.555       4.445       3.335       2.224       1.114      3.3313E-03
   5    9.997       8.887       7.776       6.666       5.555       4.445       3.335       2.224       1.114      3.3313E-03
   6    9.997       8.887       7.776       6.666       5.555       4.445       3.335       2.224       1.114      3.3313E-03
   7    9.997       8.887       7.776       6.666       5.555       4.445       3.335       2.224       1.114      3.3313E-03
   8    9.997       8.887       7.776       6.666       5.555       4.445       3.335       2.224       1.114      3.3313E-03
   9    9.997       8.887       7.776       6.666       5.555       4.445       3.335       2.224       1.114      3.3313E-03
  10    9.997       8.887       7.776       6.666       5.555       4.445       3.335       2.224       1.114      3.3313E-03

 HEAD WILL BE SAVED ON UNIT   51 AT END OF TIME STEP   34, STRESS PERIOD    2

 DRAWDOWN WILL BE SAVED ON UNIT   52 AT END OF TIME STEP   34, STRESS PERIOD    2
1
  VOLUMETRIC BUDGET FOR ENTIRE MODEL AT END OF TIME STEP   34, STRESS PERIOD   2
  ------------------------------------------------------------------------------

     CUMULATIVE VOLUMES      L**3       RATES FOR THIS TIME STEP      L**3/T
     ------------------                 ------------------------

           IN:                                      IN:
           ---                                      ---
             STORAGE =       1.0477E-08               STORAGE =           0.0000
       CONSTANT HEAD =           0.0000         CONSTANT HEAD =           0.0000
               WELLS =           0.0000                 WELLS =           0.0000
     HEAD DEP BOUNDS =       23320.8828       HEAD DEP BOUNDS =         666.3123

            TOTAL IN =       23320.8828              TOTAL IN =         666.3123

          OUT:                                     OUT:
          ----                                     ----
             STORAGE =       5.2387E-08               STORAGE =           0.0000
       CONSTANT HEAD =           0.0000         CONSTANT HEAD =           0.0000
               WELLS =           0.0000                 WELLS =           0.0000
     HEAD DEP BOUNDS =       23319.0898       HEAD DEP BOUNDS =         666.2595

           TOTAL OUT =       23319.0898             TOTAL OUT =         666.2595

            IN - OUT =           1.7930              IN - OUT =       5.2795E-02

 PERCENT DISCREPANCY =           0.01     PERCENT DISCREPANCY =           0.01






         TIME SUMMARY AT END OF TIME STEP   34 IN STRESS PERIOD    2
                    SECONDS     MINUTES      HOURS       DAYS        YEARS
                    -----------------------------------------------------------
   TIME STEP LENGTH  86400.      1440.0      24.000      1.0000     2.73785E-03
 STRESS PERIOD TIME 2.93760E+06  48960.      816.00      34.000     9.30869E-02
         TOTAL TIME 3.02400E+06  50400.      840.00      35.000     9.58248E-02
1
 
 SOLVING FOR HEAD 

 OUTPUT CONTROL FOR STRESS PERIOD    2   TIME STEP   35
    SAVE HEAD FOR ALL LAYERS
    SAVE DRAWDOWN FOR ALL LAYERS
    SAVE BUDGET
    PRINT HEAD FOR ALL LAYERS
    PRINT BUDGET
 UBDSV1 SAVING "         STORAGE" ON UNIT  53 AT TIME STEP 35, STRESS PERIOD   2
 UBDSV2 SAVING "   CONSTANT HEAD" ON UNIT  53 AT TIME STEP 35, STRESS PERIOD   2
 UBDSV1 SAVING "FLOW RIGHT FACE " ON UNIT  53 AT TIME STEP 35, STRESS PERIOD   2
 UBDSV1 SAVING "FLOW FRONT FACE " ON UNIT  53 AT TIME STEP 35, STRESS PERIOD   2
 UBDSV1 SAVING "FLOW LOWER FACE " ON UNIT  53 AT TIME STEP 35, STRESS PERIOD   2
1
              HEAD IN LAYER   1 AT END OF TIME STEP  35 IN STRESS PERIOD    2
  ---------------------------------------------------------------------------

            1           2           3           4           5           6           7           8           9          10
 ........................................................................................................................
   1    9.997       8.887       7.776       6.666       5.555       4.445       3.335       2.224       1.114      3.3313E-03
   2    9.997       8.887       7.776       6.666       5.555       4.445       3.335       2.224       1.114      3.3313E-03
   3    9.997       8.887       7.776       6.666       5.555       4.445       3.335       2.224       1.114      3.3313E-03
   4    9.997       8.887       7.776       6.666       5.555       4.445       3.335       2.224       1.114      3.3313E-03
   5    9.997       8.887       7.776       6.666       5.555       4.445       3.335       2.224       1.114      3.3313E-03
   6    9.997       8.887       7.776       6.666       5.555       4.445       3.335       2.224       1.114      3.3313E-03
   7    9.997       8.887       7.776       6.666       5.555       4.445       3.335       2.224       1.114      3.3313E-03
   8    9.997       8.887       7.776       6.666       5.555       4.445       3.335       2.224       1.114      3.3313E-03
   9    9.997       8.887       7.776       6.666       5.555       4.445       3.335       2.224       1.114      3.3313E-03
  10    9.997       8.887       7.776       6.666       5.555       4.445       3.335       2.224       1.114      3.3313E-03
1
              HEAD IN LAYER   2 AT END OF TIME STEP  35 IN STRESS PERIOD    2
  ---------------------------------------------------------------------------

            1           2           3           4           5           6           7           8           9          10
 ........................................................................................................................
   1    9.997       8.887       7.776       6.666       5.555       4.445       3.335       2.224       1.114      3.3313E-03
   2    9.997       8.887       7.776       6.666       5.555       4.445       3.335       2.224       1.114      3.3313E-03
   3    9.997       8.887       7.776       6.666       5.555       4.445       3.335       2.224       1.114      3.3313E-03
   4    9.997       8.887       7.776       6.666       5.555       4.445       3.335       2.224       1.114      3.3313E-03
   5    9.997       8.887       7.776       6.666       5.555       4.445       3.335       2.224       1.114      3.3313E-03
   6    9.997       8.887       7.776       6.666       5.555       4.445       3.335       2.224       1.114      3.3313E-03
   7    9.997       8.887       7.776       6.666       5.555       4.445       3.335       2.224       1.114      3.3313E-03
   8    9.997       8.887       7.776       6.666       5.555       4.445       3.335       2.224       1.114      3.3313E-03
   9    9.997       8.887       7.776       6.666       5.555       4.445       3.335       2.224       1.114      3.3313E-03
  10    9.997       8.887       7.776       6.666       5.555       4.445       3.335       2.224       1.114      3.3313E-03
1
              HEAD IN LAYER   3 AT END OF TIME STEP  35 IN STRESS PERIOD    2
  ---------------------------------------------------------------------------

            1           2           3           4           5           6           7           8           9          10
 ........................................................................................................................
   1    9.997       8.887       7.776       6.666       5.555       4.445       3.335       2.224       1.114      3.3313E-03
   2    9.997       8.887       7.776       6.666       5.555       4.445       3.335       2.224       1.114      3.3313E-03
   3    9.997       8.887       7.776       6.666       5.555       4.445       3.335       2.224       1.114      3.3313E-03
   4    9.997       8.887       7.776       6.666       5.555       4.445       3.335       2.224       1.114      3.3313E-03
   5    9.997       8.887       7.776       6.666       5.555       4.445       3.335       2.224       1.114      3.3313E-03
   6    9.997       8.887       7.776       6.666       5.555       4.445       3.335       2.224       1.114      3.3313E-03
   7    9.997       8.887       7.776       6.666       5.555       4.445       3.335       2.224       1.114      3.3313E-03
   8    9.997       8.887       7.776       6.666       5.555       4.445       3.335       2.224       1.114      3.3313E-03
   9    9.997       8.887       7.776       6.666       5.555       4.445       3.335       2.224       1.114      3.3313E-03
  10    9.997       8.887       7.776       6.666       5.555       4.445       3.335       2.224       1.114      3.3313E-03
1
              HEAD IN LAYER   4 AT END OF TIME STEP  35 IN STRESS PERIOD    2
  ---------------------------------------------------------------------------

            1           2           3           4           5           6           7           8           9          10
 ........................................................................................................................
   1    9.997       8.887       7.776       6.666       5.555       4.445       3.335       2.224       1.114      3.3313E-03
   2    9.997       8.887       7.776       6.666       5.555       4.445       3.335       2.224       1.114      3.3313E-03
   3    9.997       8.887       7.776       6.666       5.555       4.445       3.335       2.224       1.114      3.3313E-03
   4    9.997       8.887       7.776       6.666       5.555       4.445       3.335       2.224       1.114      3.3313E-03
   5    9.997       8.887       7.776       6.666       5.555       4.445       3.335       2.224       1.114      3.3313E-03
   6    9.997       8.887       7.776       6.666       5.555       4.445       3.335       2.224       1.114      3.3313E-03
   7    9.997       8.887       7.776       6.666       5.555       4.445       3.335       2.224       1.114      3.3313E-03
   8    9.997       8.887       7.776       6.666       5.555       4.445       3.335       2.224       1.114      3.3313E-03
   9    9.997       8.887       7.776       6.666       5.555       4.445       3.335       2.224       1.114      3.3313E-03
  10    9.997       8.887       7.776       6.666       5.555       4.445       3.335       2.224       1.114      3.3313E-03

 HEAD WILL BE SAVED ON UNIT   51 AT END OF TIME STEP   35, STRESS PERIOD    2

 DRAWDOWN WILL BE SAVED ON UNIT   52 AT END OF TIME STEP   35, STRESS PERIOD    2
1
  VOLUMETRIC BUDGET FOR ENTIRE MODEL AT END OF TIME STEP   35, STRESS PERIOD   2
  ------------------------------------------------------------------------------

     CUMULATIVE VOLUMES      L**3       RATES FOR THIS TIME STEP      L**3/T
     ------------------                 ------------------------

           IN:                                      IN:
           ---                                      ---
             STORAGE =       1.0477E-08               STORAGE =           0.0000
       CONSTANT HEAD =           0.0000         CONSTANT HEAD =           0.0000
               WELLS =           0.0000                 WELLS =           0.0000
     HEAD DEP BOUNDS =       23987.1953       HEAD DEP BOUNDS =         666.3123

            TOTAL IN =       23987.1953              TOTAL IN =         666.3123

          OUT:                                     OUT:
          ----                                     ----
             STORAGE =       5.2387E-08               STORAGE =           0.0000
       CONSTANT HEAD =           0.0000         CONSTANT HEAD =           0.0000
               WELLS =           0.0000                 WELLS =           0.0000
     HEAD DEP BOUNDS =       23985.3496       HEAD DEP BOUNDS =         666.2595

           TOTAL OUT =       23985.3496             TOTAL OUT =         666.2595

            IN - OUT =           1.8457              IN - OUT =       5.2795E-02

 PERCENT DISCREPANCY =           0.01     PERCENT DISCREPANCY =           0.01






         TIME SUMMARY AT END OF TIME STEP   35 IN STRESS PERIOD    2
                    SECONDS     MINUTES      HOURS       DAYS        YEARS
                    -----------------------------------------------------------
   TIME STEP LENGTH  86400.      1440.0      24.000      1.0000     2.73785E-03
 STRESS PERIOD TIME 3.02400E+06  50400.      840.00      35.000     9.58248E-02
         TOTAL TIME 3.11040E+06  51840.      864.00      36.000     9.85626E-02
1
 
 SOLVING FOR HEAD 

 OUTPUT CONTROL FOR STRESS PERIOD    2   TIME STEP   36
    SAVE HEAD FOR ALL LAYERS
    SAVE DRAWDOWN FOR ALL LAYERS
    SAVE BUDGET
    PRINT HEAD FOR ALL LAYERS
    PRINT BUDGET
 UBDSV1 SAVING "         STORAGE" ON UNIT  53 AT TIME STEP 36, STRESS PERIOD   2
 UBDSV2 SAVING "   CONSTANT HEAD" ON UNIT  53 AT TIME STEP 36, STRESS PERIOD   2
 UBDSV1 SAVING "FLOW RIGHT FACE " ON UNIT  53 AT TIME STEP 36, STRESS PERIOD   2
 UBDSV1 SAVING "FLOW FRONT FACE " ON UNIT  53 AT TIME STEP 36, STRESS PERIOD   2
 UBDSV1 SAVING "FLOW LOWER FACE " ON UNIT  53 AT TIME STEP 36, STRESS PERIOD   2
1
              HEAD IN LAYER   1 AT END OF TIME STEP  36 IN STRESS PERIOD    2
  ---------------------------------------------------------------------------

            1           2           3           4           5           6           7           8           9          10
 ........................................................................................................................
   1    9.997       8.887       7.776       6.666       5.555       4.445       3.335       2.224       1.114      3.3313E-03
   2    9.997       8.887       7.776       6.666       5.555       4.445       3.335       2.224       1.114      3.3313E-03
   3    9.997       8.887       7.776       6.666       5.555       4.445       3.335       2.224       1.114      3.3313E-03
   4    9.997       8.887       7.776       6.666       5.555       4.445       3.335       2.224       1.114      3.3313E-03
   5    9.997       8.887       7.776       6.666       5.555       4.445       3.335       2.224       1.114      3.3313E-03
   6    9.997       8.887       7.776       6.666       5.555       4.445       3.335       2.224       1.114      3.3313E-03
   7    9.997       8.887       7.776       6.666       5.555       4.445       3.335       2.224       1.114      3.3313E-03
   8    9.997       8.887       7.776       6.666       5.555       4.445       3.335       2.224       1.114      3.3313E-03
   9    9.997       8.887       7.776       6.666       5.555       4.445       3.335       2.224       1.114      3.3313E-03
  10    9.997       8.887       7.776       6.666       5.555       4.445       3.335       2.224       1.114      3.3313E-03
1
              HEAD IN LAYER   2 AT END OF TIME STEP  36 IN STRESS PERIOD    2
  ---------------------------------------------------------------------------

            1           2           3           4           5           6           7           8           9          10
 ........................................................................................................................
   1    9.997       8.887       7.776       6.666       5.555       4.445       3.335       2.224       1.114      3.3313E-03
   2    9.997       8.887       7.776       6.666       5.555       4.445       3.335       2.224       1.114      3.3313E-03
   3    9.997       8.887       7.776       6.666       5.555       4.445       3.335       2.224       1.114      3.3313E-03
   4    9.997       8.887       7.776       6.666       5.555       4.445       3.335       2.224       1.114      3.3313E-03
   5    9.997       8.887       7.776       6.666       5.555       4.445       3.335       2.224       1.114      3.3313E-03
   6    9.997       8.887       7.776       6.666       5.555       4.445       3.335       2.224       1.114      3.3313E-03
   7    9.997       8.887       7.776       6.666       5.555       4.445       3.335       2.224       1.114      3.3313E-03
   8    9.997       8.887       7.776       6.666       5.555       4.445       3.335       2.224       1.114      3.3313E-03
   9    9.997       8.887       7.776       6.666       5.555       4.445       3.335       2.224       1.114      3.3313E-03
  10    9.997       8.887       7.776       6.666       5.555       4.445       3.335       2.224       1.114      3.3313E-03
1
              HEAD IN LAYER   3 AT END OF TIME STEP  36 IN STRESS PERIOD    2
  ---------------------------------------------------------------------------

            1           2           3           4           5           6           7           8           9          10
 ........................................................................................................................
   1    9.997       8.887       7.776       6.666       5.555       4.445       3.335       2.224       1.114      3.3313E-03
   2    9.997       8.887       7.776       6.666       5.555       4.445       3.335       2.224       1.114      3.3313E-03
   3    9.997       8.887       7.776       6.666       5.555       4.445       3.335       2.224       1.114      3.3313E-03
   4    9.997       8.887       7.776       6.666       5.555       4.445       3.335       2.224       1.114      3.3313E-03
   5    9.997       8.887       7.776       6.666       5.555       4.445       3.335       2.224       1.114      3.3313E-03
   6    9.997       8.887       7.776       6.666       5.555       4.445       3.335       2.224       1.114      3.3313E-03
   7    9.997       8.887       7.776       6.666       5.555       4.445       3.335       2.224       1.114      3.3313E-03
   8    9.997       8.887       7.776       6.666       5.555       4.445       3.335       2.224       1.114      3.3313E-03
   9    9.997       8.887       7.776       6.666       5.555       4.445       3.335       2.224       1.114      3.3313E-03
  10    9.997       8.887       7.776       6.666       5.555       4.445       3.335       2.224       1.114      3.3313E-03
1
              HEAD IN LAYER   4 AT END OF TIME STEP  36 IN STRESS PERIOD    2
  ---------------------------------------------------------------------------

            1           2           3           4           5           6           7           8           9          10
 ........................................................................................................................
   1    9.997       8.887       7.776       6.666       5.555       4.445       3.335       2.224       1.114      3.3313E-03
   2    9.997       8.887       7.776       6.666       5.555       4.445       3.335       2.224       1.114      3.3313E-03
   3    9.997       8.887       7.776       6.666       5.555       4.445       3.335       2.224       1.114      3.3313E-03
   4    9.997       8.887       7.776       6.666       5.555       4.445       3.335       2.224       1.114      3.3313E-03
   5    9.997       8.887       7.776       6.666       5.555       4.445       3.335       2.224       1.114      3.3313E-03
   6    9.997       8.887       7.776       6.666       5.555       4.445       3.335       2.224       1.114      3.3313E-03
   7    9.997       8.887       7.776       6.666       5.555       4.445       3.335       2.224       1.114      3.3313E-03
   8    9.997       8.887       7.776       6.666       5.555       4.445       3.335       2.224       1.114      3.3313E-03
   9    9.997       8.887       7.776       6.666       5.555       4.445       3.335       2.224       1.114      3.3313E-03
  10    9.997       8.887       7.776       6.666       5.555       4.445       3.335       2.224       1.114      3.3313E-03

 HEAD WILL BE SAVED ON UNIT   51 AT END OF TIME STEP   36, STRESS PERIOD    2

 DRAWDOWN WILL BE SAVED ON UNIT   52 AT END OF TIME STEP   36, STRESS PERIOD    2
1
  VOLUMETRIC BUDGET FOR ENTIRE MODEL AT END OF TIME STEP   36, STRESS PERIOD   2
  ------------------------------------------------------------------------------

     CUMULATIVE VOLUMES      L**3       RATES FOR THIS TIME STEP      L**3/T
     ------------------                 ------------------------

           IN:                                      IN:
           ---                                      ---
             STORAGE =       1.0477E-08               STORAGE =           0.0000
       CONSTANT HEAD =           0.0000         CONSTANT HEAD =           0.0000
               WELLS =           0.0000                 WELLS =           0.0000
     HEAD DEP BOUNDS =       24653.5078       HEAD DEP BOUNDS =         666.3123

            TOTAL IN =       24653.5078              TOTAL IN =         666.3123

          OUT:                                     OUT:
          ----                                     ----
             STORAGE =       5.2387E-08               STORAGE =           0.0000
       CONSTANT HEAD =           0.0000         CONSTANT HEAD =           0.0000
               WELLS =           0.0000                 WELLS =           0.0000
     HEAD DEP BOUNDS =       24651.6094       HEAD DEP BOUNDS =         666.2595

           TOTAL OUT =       24651.6094             TOTAL OUT =         666.2595

            IN - OUT =           1.8984              IN - OUT =       5.2795E-02

 PERCENT DISCREPANCY =           0.01     PERCENT DISCREPANCY =           0.01






         TIME SUMMARY AT END OF TIME STEP   36 IN STRESS PERIOD    2
                    SECONDS     MINUTES      HOURS       DAYS        YEARS
                    -----------------------------------------------------------
   TIME STEP LENGTH  86400.      1440.0      24.000      1.0000     2.73785E-03
 STRESS PERIOD TIME 3.11040E+06  51840.      864.00      36.000     9.85626E-02
         TOTAL TIME 3.19680E+06  53280.      888.00      37.000     0.10130    
1
 
 SOLVING FOR HEAD 

 OUTPUT CONTROL FOR STRESS PERIOD    2   TIME STEP   37
    SAVE HEAD FOR ALL LAYERS
    SAVE DRAWDOWN FOR ALL LAYERS
    SAVE BUDGET
    PRINT HEAD FOR ALL LAYERS
    PRINT BUDGET
 UBDSV1 SAVING "         STORAGE" ON UNIT  53 AT TIME STEP 37, STRESS PERIOD   2
 UBDSV2 SAVING "   CONSTANT HEAD" ON UNIT  53 AT TIME STEP 37, STRESS PERIOD   2
 UBDSV1 SAVING "FLOW RIGHT FACE " ON UNIT  53 AT TIME STEP 37, STRESS PERIOD   2
 UBDSV1 SAVING "FLOW FRONT FACE " ON UNIT  53 AT TIME STEP 37, STRESS PERIOD   2
 UBDSV1 SAVING "FLOW LOWER FACE " ON UNIT  53 AT TIME STEP 37, STRESS PERIOD   2
1
              HEAD IN LAYER   1 AT END OF TIME STEP  37 IN STRESS PERIOD    2
  ---------------------------------------------------------------------------

            1           2           3           4           5           6           7           8           9          10
 ........................................................................................................................
   1    9.997       8.887       7.776       6.666       5.555       4.445       3.335       2.224       1.114      3.3313E-03
   2    9.997       8.887       7.776       6.666       5.555       4.445       3.335       2.224       1.114      3.3313E-03
   3    9.997       8.887       7.776       6.666       5.555       4.445       3.335       2.224       1.114      3.3313E-03
   4    9.997       8.887       7.776       6.666       5.555       4.445       3.335       2.224       1.114      3.3313E-03
   5    9.997       8.887       7.776       6.666       5.555       4.445       3.335       2.224       1.114      3.3313E-03
   6    9.997       8.887       7.776       6.666       5.555       4.445       3.335       2.224       1.114      3.3313E-03
   7    9.997       8.887       7.776       6.666       5.555       4.445       3.335       2.224       1.114      3.3313E-03
   8    9.997       8.887       7.776       6.666       5.555       4.445       3.335       2.224       1.114      3.3313E-03
   9    9.997       8.887       7.776       6.666       5.555       4.445       3.335       2.224       1.114      3.3313E-03
  10    9.997       8.887       7.776       6.666       5.555       4.445       3.335       2.224       1.114      3.3313E-03
1
              HEAD IN LAYER   2 AT END OF TIME STEP  37 IN STRESS PERIOD    2
  ---------------------------------------------------------------------------

            1           2           3           4           5           6           7           8           9          10
 ........................................................................................................................
   1    9.997       8.887       7.776       6.666       5.555       4.445       3.335       2.224       1.114      3.3313E-03
   2    9.997       8.887       7.776       6.666       5.555       4.445       3.335       2.224       1.114      3.3313E-03
   3    9.997       8.887       7.776       6.666       5.555       4.445       3.335       2.224       1.114      3.3313E-03
   4    9.997       8.887       7.776       6.666       5.555       4.445       3.335       2.224       1.114      3.3313E-03
   5    9.997       8.887       7.776       6.666       5.555       4.445       3.335       2.224       1.114      3.3313E-03
   6    9.997       8.887       7.776       6.666       5.555       4.445       3.335       2.224       1.114      3.3313E-03
   7    9.997       8.887       7.776       6.666       5.555       4.445       3.335       2.224       1.114      3.3313E-03
   8    9.997       8.887       7.776       6.666       5.555       4.445       3.335       2.224       1.114      3.3313E-03
   9    9.997       8.887       7.776       6.666       5.555       4.445       3.335       2.224       1.114      3.3313E-03
  10    9.997       8.887       7.776       6.666       5.555       4.445       3.335       2.224       1.114      3.3313E-03
1
              HEAD IN LAYER   3 AT END OF TIME STEP  37 IN STRESS PERIOD    2
  ---------------------------------------------------------------------------

            1           2           3           4           5           6           7           8           9          10
 ........................................................................................................................
   1    9.997       8.887       7.776       6.666       5.555       4.445       3.335       2.224       1.114      3.3313E-03
   2    9.997       8.887       7.776       6.666       5.555       4.445       3.335       2.224       1.114      3.3313E-03
   3    9.997       8.887       7.776       6.666       5.555       4.445       3.335       2.224       1.114      3.3313E-03
   4    9.997       8.887       7.776       6.666       5.555       4.445       3.335       2.224       1.114      3.3313E-03
   5    9.997       8.887       7.776       6.666       5.555       4.445       3.335       2.224       1.114      3.3313E-03
   6    9.997       8.887       7.776       6.666       5.555       4.445       3.335       2.224       1.114      3.3313E-03
   7    9.997       8.887       7.776       6.666       5.555       4.445       3.335       2.224       1.114      3.3313E-03
   8    9.997       8.887       7.776       6.666       5.555       4.445       3.335       2.224       1.114      3.3313E-03
   9    9.997       8.887       7.776       6.666       5.555       4.445       3.335       2.224       1.114      3.3313E-03
  10    9.997       8.887       7.776       6.666       5.555       4.445       3.335       2.224       1.114      3.3313E-03
1
              HEAD IN LAYER   4 AT END OF TIME STEP  37 IN STRESS PERIOD    2
  ---------------------------------------------------------------------------

            1           2           3           4           5           6           7           8           9          10
 ........................................................................................................................
   1    9.997       8.887       7.776       6.666       5.555       4.445       3.335       2.224       1.114      3.3313E-03
   2    9.997       8.887       7.776       6.666       5.555       4.445       3.335       2.224       1.114      3.3313E-03
   3    9.997       8.887       7.776       6.666       5.555       4.445       3.335       2.224       1.114      3.3313E-03
   4    9.997       8.887       7.776       6.666       5.555       4.445       3.335       2.224       1.114      3.3313E-03
   5    9.997       8.887       7.776       6.666       5.555       4.445       3.335       2.224       1.114      3.3313E-03
   6    9.997       8.887       7.776       6.666       5.555       4.445       3.335       2.224       1.114      3.3313E-03
   7    9.997       8.887       7.776       6.666       5.555       4.445       3.335       2.224       1.114      3.3313E-03
   8    9.997       8.887       7.776       6.666       5.555       4.445       3.335       2.224       1.114      3.3313E-03
   9    9.997       8.887       7.776       6.666       5.555       4.445       3.335       2.224       1.114      3.3313E-03
  10    9.997       8.887       7.776       6.666       5.555       4.445       3.335       2.224       1.114      3.3313E-03

 HEAD WILL BE SAVED ON UNIT   51 AT END OF TIME STEP   37, STRESS PERIOD    2

 DRAWDOWN WILL BE SAVED ON UNIT   52 AT END OF TIME STEP   37, STRESS PERIOD    2
1
  VOLUMETRIC BUDGET FOR ENTIRE MODEL AT END OF TIME STEP   37, STRESS PERIOD   2
  ------------------------------------------------------------------------------

     CUMULATIVE VOLUMES      L**3       RATES FOR THIS TIME STEP      L**3/T
     ------------------                 ------------------------

           IN:                                      IN:
           ---                                      ---
             STORAGE =       1.0477E-08               STORAGE =           0.0000
       CONSTANT HEAD =           0.0000         CONSTANT HEAD =           0.0000
               WELLS =           0.0000                 WELLS =           0.0000
     HEAD DEP BOUNDS =       25319.8203       HEAD DEP BOUNDS =         666.3123

            TOTAL IN =       25319.8203              TOTAL IN =         666.3123

          OUT:                                     OUT:
          ----                                     ----
             STORAGE =       5.2387E-08               STORAGE =           0.0000
       CONSTANT HEAD =           0.0000         CONSTANT HEAD =           0.0000
               WELLS =           0.0000                 WELLS =           0.0000
     HEAD DEP BOUNDS =       25317.8691       HEAD DEP BOUNDS =         666.2595

           TOTAL OUT =       25317.8691             TOTAL OUT =         666.2595

            IN - OUT =           1.9512              IN - OUT =       5.2795E-02

 PERCENT DISCREPANCY =           0.01     PERCENT DISCREPANCY =           0.01






         TIME SUMMARY AT END OF TIME STEP   37 IN STRESS PERIOD    2
                    SECONDS     MINUTES      HOURS       DAYS        YEARS
                    -----------------------------------------------------------
   TIME STEP LENGTH  86400.      1440.0      24.000      1.0000     2.73785E-03
 STRESS PERIOD TIME 3.19680E+06  53280.      888.00      37.000     0.10130    
         TOTAL TIME 3.28320E+06  54720.      912.00      38.000     0.10404    
1
 
 SOLVING FOR HEAD 

 OUTPUT CONTROL FOR STRESS PERIOD    2   TIME STEP   38
    SAVE HEAD FOR ALL LAYERS
    SAVE DRAWDOWN FOR ALL LAYERS
    SAVE BUDGET
    PRINT HEAD FOR ALL LAYERS
    PRINT BUDGET
 UBDSV1 SAVING "         STORAGE" ON UNIT  53 AT TIME STEP 38, STRESS PERIOD   2
 UBDSV2 SAVING "   CONSTANT HEAD" ON UNIT  53 AT TIME STEP 38, STRESS PERIOD   2
 UBDSV1 SAVING "FLOW RIGHT FACE " ON UNIT  53 AT TIME STEP 38, STRESS PERIOD   2
 UBDSV1 SAVING "FLOW FRONT FACE " ON UNIT  53 AT TIME STEP 38, STRESS PERIOD   2
 UBDSV1 SAVING "FLOW LOWER FACE " ON UNIT  53 AT TIME STEP 38, STRESS PERIOD   2
1
              HEAD IN LAYER   1 AT END OF TIME STEP  38 IN STRESS PERIOD    2
  ---------------------------------------------------------------------------

            1           2           3           4           5           6           7           8           9          10
 ........................................................................................................................
   1    9.997       8.887       7.776       6.666       5.555       4.445       3.335       2.224       1.114      3.3313E-03
   2    9.997       8.887       7.776       6.666       5.555       4.445       3.335       2.224       1.114      3.3313E-03
   3    9.997       8.887       7.776       6.666       5.555       4.445       3.335       2.224       1.114      3.3313E-03
   4    9.997       8.887       7.776       6.666       5.555       4.445       3.335       2.224       1.114      3.3313E-03
   5    9.997       8.887       7.776       6.666       5.555       4.445       3.335       2.224       1.114      3.3313E-03
   6    9.997       8.887       7.776       6.666       5.555       4.445       3.335       2.224       1.114      3.3313E-03
   7    9.997       8.887       7.776       6.666       5.555       4.445       3.335       2.224       1.114      3.3313E-03
   8    9.997       8.887       7.776       6.666       5.555       4.445       3.335       2.224       1.114      3.3313E-03
   9    9.997       8.887       7.776       6.666       5.555       4.445       3.335       2.224       1.114      3.3313E-03
  10    9.997       8.887       7.776       6.666       5.555       4.445       3.335       2.224       1.114      3.3313E-03
1
              HEAD IN LAYER   2 AT END OF TIME STEP  38 IN STRESS PERIOD    2
  ---------------------------------------------------------------------------

            1           2           3           4           5           6           7           8           9          10
 ........................................................................................................................
   1    9.997       8.887       7.776       6.666       5.555       4.445       3.335       2.224       1.114      3.3313E-03
   2    9.997       8.887       7.776       6.666       5.555       4.445       3.335       2.224       1.114      3.3313E-03
   3    9.997       8.887       7.776       6.666       5.555       4.445       3.335       2.224       1.114      3.3313E-03
   4    9.997       8.887       7.776       6.666       5.555       4.445       3.335       2.224       1.114      3.3313E-03
   5    9.997       8.887       7.776       6.666       5.555       4.445       3.335       2.224       1.114      3.3313E-03
   6    9.997       8.887       7.776       6.666       5.555       4.445       3.335       2.224       1.114      3.3313E-03
   7    9.997       8.887       7.776       6.666       5.555       4.445       3.335       2.224       1.114      3.3313E-03
   8    9.997       8.887       7.776       6.666       5.555       4.445       3.335       2.224       1.114      3.3313E-03
   9    9.997       8.887       7.776       6.666       5.555       4.445       3.335       2.224       1.114      3.3313E-03
  10    9.997       8.887       7.776       6.666       5.555       4.445       3.335       2.224       1.114      3.3313E-03
1
              HEAD IN LAYER   3 AT END OF TIME STEP  38 IN STRESS PERIOD    2
  ---------------------------------------------------------------------------

            1           2           3           4           5           6           7           8           9          10
 ........................................................................................................................
   1    9.997       8.887       7.776       6.666       5.555       4.445       3.335       2.224       1.114      3.3313E-03
   2    9.997       8.887       7.776       6.666       5.555       4.445       3.335       2.224       1.114      3.3313E-03
   3    9.997       8.887       7.776       6.666       5.555       4.445       3.335       2.224       1.114      3.3313E-03
   4    9.997       8.887       7.776       6.666       5.555       4.445       3.335       2.224       1.114      3.3313E-03
   5    9.997       8.887       7.776       6.666       5.555       4.445       3.335       2.224       1.114      3.3313E-03
   6    9.997       8.887       7.776       6.666       5.555       4.445       3.335       2.224       1.114      3.3313E-03
   7    9.997       8.887       7.776       6.666       5.555       4.445       3.335       2.224       1.114      3.3313E-03
   8    9.997       8.887       7.776       6.666       5.555       4.445       3.335       2.224       1.114      3.3313E-03
   9    9.997       8.887       7.776       6.666       5.555       4.445       3.335       2.224       1.114      3.3313E-03
  10    9.997       8.887       7.776       6.666       5.555       4.445       3.335       2.224       1.114      3.3313E-03
1
              HEAD IN LAYER   4 AT END OF TIME STEP  38 IN STRESS PERIOD    2
  ---------------------------------------------------------------------------

            1           2           3           4           5           6           7           8           9          10
 ........................................................................................................................
   1    9.997       8.887       7.776       6.666       5.555       4.445       3.335       2.224       1.114      3.3313E-03
   2    9.997       8.887       7.776       6.666       5.555       4.445       3.335       2.224       1.114      3.3313E-03
   3    9.997       8.887       7.776       6.666       5.555       4.445       3.335       2.224       1.114      3.3313E-03
   4    9.997       8.887       7.776       6.666       5.555       4.445       3.335       2.224       1.114      3.3313E-03
   5    9.997       8.887       7.776       6.666       5.555       4.445       3.335       2.224       1.114      3.3313E-03
   6    9.997       8.887       7.776       6.666       5.555       4.445       3.335       2.224       1.114      3.3313E-03
   7    9.997       8.887       7.776       6.666       5.555       4.445       3.335       2.224       1.114      3.3313E-03
   8    9.997       8.887       7.776       6.666       5.555       4.445       3.335       2.224       1.114      3.3313E-03
   9    9.997       8.887       7.776       6.666       5.555       4.445       3.335       2.224       1.114      3.3313E-03
  10    9.997       8.887       7.776       6.666       5.555       4.445       3.335       2.224       1.114      3.3313E-03

 HEAD WILL BE SAVED ON UNIT   51 AT END OF TIME STEP   38, STRESS PERIOD    2

 DRAWDOWN WILL BE SAVED ON UNIT   52 AT END OF TIME STEP   38, STRESS PERIOD    2
1
  VOLUMETRIC BUDGET FOR ENTIRE MODEL AT END OF TIME STEP   38, STRESS PERIOD   2
  ------------------------------------------------------------------------------

     CUMULATIVE VOLUMES      L**3       RATES FOR THIS TIME STEP      L**3/T
     ------------------                 ------------------------

           IN:                                      IN:
           ---                                      ---
             STORAGE =       1.0477E-08               STORAGE =           0.0000
       CONSTANT HEAD =           0.0000         CONSTANT HEAD =           0.0000
               WELLS =           0.0000                 WELLS =           0.0000
     HEAD DEP BOUNDS =       25986.1328       HEAD DEP BOUNDS =         666.3123

            TOTAL IN =       25986.1328              TOTAL IN =         666.3123

          OUT:                                     OUT:
          ----                                     ----
             STORAGE =       5.2387E-08               STORAGE =           0.0000
       CONSTANT HEAD =           0.0000         CONSTANT HEAD =           0.0000
               WELLS =           0.0000                 WELLS =           0.0000
     HEAD DEP BOUNDS =       25984.1289       HEAD DEP BOUNDS =         666.2595

           TOTAL OUT =       25984.1289             TOTAL OUT =         666.2595

            IN - OUT =           2.0039              IN - OUT =       5.2795E-02

 PERCENT DISCREPANCY =           0.01     PERCENT DISCREPANCY =           0.01






         TIME SUMMARY AT END OF TIME STEP   38 IN STRESS PERIOD    2
                    SECONDS     MINUTES      HOURS       DAYS        YEARS
                    -----------------------------------------------------------
   TIME STEP LENGTH  86400.      1440.0      24.000      1.0000     2.73785E-03
 STRESS PERIOD TIME 3.28320E+06  54720.      912.00      38.000     0.10404    
         TOTAL TIME 3.36960E+06  56160.      936.00      39.000     0.10678    
1
 
 SOLVING FOR HEAD 

 OUTPUT CONTROL FOR STRESS PERIOD    2   TIME STEP   39
    SAVE HEAD FOR ALL LAYERS
    SAVE DRAWDOWN FOR ALL LAYERS
    SAVE BUDGET
    PRINT HEAD FOR ALL LAYERS
    PRINT BUDGET
 UBDSV1 SAVING "         STORAGE" ON UNIT  53 AT TIME STEP 39, STRESS PERIOD   2
 UBDSV2 SAVING "   CONSTANT HEAD" ON UNIT  53 AT TIME STEP 39, STRESS PERIOD   2
 UBDSV1 SAVING "FLOW RIGHT FACE " ON UNIT  53 AT TIME STEP 39, STRESS PERIOD   2
 UBDSV1 SAVING "FLOW FRONT FACE " ON UNIT  53 AT TIME STEP 39, STRESS PERIOD   2
 UBDSV1 SAVING "FLOW LOWER FACE " ON UNIT  53 AT TIME STEP 39, STRESS PERIOD   2
1
              HEAD IN LAYER   1 AT END OF TIME STEP  39 IN STRESS PERIOD    2
  ---------------------------------------------------------------------------

            1           2           3           4           5           6           7           8           9          10
 ........................................................................................................................
   1    9.997       8.887       7.776       6.666       5.555       4.445       3.335       2.224       1.114      3.3313E-03
   2    9.997       8.887       7.776       6.666       5.555       4.445       3.335       2.224       1.114      3.3313E-03
   3    9.997       8.887       7.776       6.666       5.555       4.445       3.335       2.224       1.114      3.3313E-03
   4    9.997       8.887       7.776       6.666       5.555       4.445       3.335       2.224       1.114      3.3313E-03
   5    9.997       8.887       7.776       6.666       5.555       4.445       3.335       2.224       1.114      3.3313E-03
   6    9.997       8.887       7.776       6.666       5.555       4.445       3.335       2.224       1.114      3.3313E-03
   7    9.997       8.887       7.776       6.666       5.555       4.445       3.335       2.224       1.114      3.3313E-03
   8    9.997       8.887       7.776       6.666       5.555       4.445       3.335       2.224       1.114      3.3313E-03
   9    9.997       8.887       7.776       6.666       5.555       4.445       3.335       2.224       1.114      3.3313E-03
  10    9.997       8.887       7.776       6.666       5.555       4.445       3.335       2.224       1.114      3.3313E-03
1
              HEAD IN LAYER   2 AT END OF TIME STEP  39 IN STRESS PERIOD    2
  ---------------------------------------------------------------------------

            1           2           3           4           5           6           7           8           9          10
 ........................................................................................................................
   1    9.997       8.887       7.776       6.666       5.555       4.445       3.335       2.224       1.114      3.3313E-03
   2    9.997       8.887       7.776       6.666       5.555       4.445       3.335       2.224       1.114      3.3313E-03
   3    9.997       8.887       7.776       6.666       5.555       4.445       3.335       2.224       1.114      3.3313E-03
   4    9.997       8.887       7.776       6.666       5.555       4.445       3.335       2.224       1.114      3.3313E-03
   5    9.997       8.887       7.776       6.666       5.555       4.445       3.335       2.224       1.114      3.3313E-03
   6    9.997       8.887       7.776       6.666       5.555       4.445       3.335       2.224       1.114      3.3313E-03
   7    9.997       8.887       7.776       6.666       5.555       4.445       3.335       2.224       1.114      3.3313E-03
   8    9.997       8.887       7.776       6.666       5.555       4.445       3.335       2.224       1.114      3.3313E-03
   9    9.997       8.887       7.776       6.666       5.555       4.445       3.335       2.224       1.114      3.3313E-03
  10    9.997       8.887       7.776       6.666       5.555       4.445       3.335       2.224       1.114      3.3313E-03
1
              HEAD IN LAYER   3 AT END OF TIME STEP  39 IN STRESS PERIOD    2
  ---------------------------------------------------------------------------

            1           2           3           4           5           6           7           8           9          10
 ........................................................................................................................
   1    9.997       8.887       7.776       6.666       5.555       4.445       3.335       2.224       1.114      3.3313E-03
   2    9.997       8.887       7.776       6.666       5.555       4.445       3.335       2.224       1.114      3.3313E-03
   3    9.997       8.887       7.776       6.666       5.555       4.445       3.335       2.224       1.114      3.3313E-03
   4    9.997       8.887       7.776       6.666       5.555       4.445       3.335       2.224       1.114      3.3313E-03
   5    9.997       8.887       7.776       6.666       5.555       4.445       3.335       2.224       1.114      3.3313E-03
   6    9.997       8.887       7.776       6.666       5.555       4.445       3.335       2.224       1.114      3.3313E-03
   7    9.997       8.887       7.776       6.666       5.555       4.445       3.335       2.224       1.114      3.3313E-03
   8    9.997       8.887       7.776       6.666       5.555       4.445       3.335       2.224       1.114      3.3313E-03
   9    9.997       8.887       7.776       6.666       5.555       4.445       3.335       2.224       1.114      3.3313E-03
  10    9.997       8.887       7.776       6.666       5.555       4.445       3.335       2.224       1.114      3.3313E-03
1
              HEAD IN LAYER   4 AT END OF TIME STEP  39 IN STRESS PERIOD    2
  ---------------------------------------------------------------------------

            1           2           3           4           5           6           7           8           9          10
 ........................................................................................................................
   1    9.997       8.887       7.776       6.666       5.555       4.445       3.335       2.224       1.114      3.3313E-03
   2    9.997       8.887       7.776       6.666       5.555       4.445       3.335       2.224       1.114      3.3313E-03
   3    9.997       8.887       7.776       6.666       5.555       4.445       3.335       2.224       1.114      3.3313E-03
   4    9.997       8.887       7.776       6.666       5.555       4.445       3.335       2.224       1.114      3.3313E-03
   5    9.997       8.887       7.776       6.666       5.555       4.445       3.335       2.224       1.114      3.3313E-03
   6    9.997       8.887       7.776       6.666       5.555       4.445       3.335       2.224       1.114      3.3313E-03
   7    9.997       8.887       7.776       6.666       5.555       4.445       3.335       2.224       1.114      3.3313E-03
   8    9.997       8.887       7.776       6.666       5.555       4.445       3.335       2.224       1.114      3.3313E-03
   9    9.997       8.887       7.776       6.666       5.555       4.445       3.335       2.224       1.114      3.3313E-03
  10    9.997       8.887       7.776       6.666       5.555       4.445       3.335       2.224       1.114      3.3313E-03

 HEAD WILL BE SAVED ON UNIT   51 AT END OF TIME STEP   39, STRESS PERIOD    2

 DRAWDOWN WILL BE SAVED ON UNIT   52 AT END OF TIME STEP   39, STRESS PERIOD    2
1
  VOLUMETRIC BUDGET FOR ENTIRE MODEL AT END OF TIME STEP   39, STRESS PERIOD   2
  ------------------------------------------------------------------------------

     CUMULATIVE VOLUMES      L**3       RATES FOR THIS TIME STEP      L**3/T
     ------------------                 ------------------------

           IN:                                      IN:
           ---                                      ---
             STORAGE =       1.0477E-08               STORAGE =           0.0000
       CONSTANT HEAD =           0.0000         CONSTANT HEAD =           0.0000
               WELLS =           0.0000                 WELLS =           0.0000
     HEAD DEP BOUNDS =       26652.4453       HEAD DEP BOUNDS =         666.3123

            TOTAL IN =       26652.4453              TOTAL IN =         666.3123

          OUT:                                     OUT:
          ----                                     ----
             STORAGE =       5.2387E-08               STORAGE =           0.0000
       CONSTANT HEAD =           0.0000         CONSTANT HEAD =           0.0000
               WELLS =           0.0000                 WELLS =           0.0000
     HEAD DEP BOUNDS =       26650.3887       HEAD DEP BOUNDS =         666.2595

           TOTAL OUT =       26650.3887             TOTAL OUT =         666.2595

            IN - OUT =           2.0566              IN - OUT =       5.2795E-02

 PERCENT DISCREPANCY =           0.01     PERCENT DISCREPANCY =           0.01






         TIME SUMMARY AT END OF TIME STEP   39 IN STRESS PERIOD    2
                    SECONDS     MINUTES      HOURS       DAYS        YEARS
                    -----------------------------------------------------------
   TIME STEP LENGTH  86400.      1440.0      24.000      1.0000     2.73785E-03
 STRESS PERIOD TIME 3.36960E+06  56160.      936.00      39.000     0.10678    
         TOTAL TIME 3.45600E+06  57600.      960.00      40.000     0.10951    
1
 
 SOLVING FOR HEAD 

 OUTPUT CONTROL FOR STRESS PERIOD    2   TIME STEP   40
    SAVE HEAD FOR ALL LAYERS
    SAVE DRAWDOWN FOR ALL LAYERS
    SAVE BUDGET
    PRINT HEAD FOR ALL LAYERS
    PRINT BUDGET
 UBDSV1 SAVING "         STORAGE" ON UNIT  53 AT TIME STEP 40, STRESS PERIOD   2
 UBDSV2 SAVING "   CONSTANT HEAD" ON UNIT  53 AT TIME STEP 40, STRESS PERIOD   2
 UBDSV1 SAVING "FLOW RIGHT FACE " ON UNIT  53 AT TIME STEP 40, STRESS PERIOD   2
 UBDSV1 SAVING "FLOW FRONT FACE " ON UNIT  53 AT TIME STEP 40, STRESS PERIOD   2
 UBDSV1 SAVING "FLOW LOWER FACE " ON UNIT  53 AT TIME STEP 40, STRESS PERIOD   2
1
              HEAD IN LAYER   1 AT END OF TIME STEP  40 IN STRESS PERIOD    2
  ---------------------------------------------------------------------------

            1           2           3           4           5           6           7           8           9          10
 ........................................................................................................................
   1    9.997       8.887       7.776       6.666       5.555       4.445       3.335       2.224       1.114      3.3313E-03
   2    9.997       8.887       7.776       6.666       5.555       4.445       3.335       2.224       1.114      3.3313E-03
   3    9.997       8.887       7.776       6.666       5.555       4.445       3.335       2.224       1.114      3.3313E-03
   4    9.997       8.887       7.776       6.666       5.555       4.445       3.335       2.224       1.114      3.3313E-03
   5    9.997       8.887       7.776       6.666       5.555       4.445       3.335       2.224       1.114      3.3313E-03
   6    9.997       8.887       7.776       6.666       5.555       4.445       3.335       2.224       1.114      3.3313E-03
   7    9.997       8.887       7.776       6.666       5.555       4.445       3.335       2.224       1.114      3.3313E-03
   8    9.997       8.887       7.776       6.666       5.555       4.445       3.335       2.224       1.114      3.3313E-03
   9    9.997       8.887       7.776       6.666       5.555       4.445       3.335       2.224       1.114      3.3313E-03
  10    9.997       8.887       7.776       6.666       5.555       4.445       3.335       2.224       1.114      3.3313E-03
1
              HEAD IN LAYER   2 AT END OF TIME STEP  40 IN STRESS PERIOD    2
  ---------------------------------------------------------------------------

            1           2           3           4           5           6           7           8           9          10
 ........................................................................................................................
   1    9.997       8.887       7.776       6.666       5.555       4.445       3.335       2.224       1.114      3.3313E-03
   2    9.997       8.887       7.776       6.666       5.555       4.445       3.335       2.224       1.114      3.3313E-03
   3    9.997       8.887       7.776       6.666       5.555       4.445       3.335       2.224       1.114      3.3313E-03
   4    9.997       8.887       7.776       6.666       5.555       4.445       3.335       2.224       1.114      3.3313E-03
   5    9.997       8.887       7.776       6.666       5.555       4.445       3.335       2.224       1.114      3.3313E-03
   6    9.997       8.887       7.776       6.666       5.555       4.445       3.335       2.224       1.114      3.3313E-03
   7    9.997       8.887       7.776       6.666       5.555       4.445       3.335       2.224       1.114      3.3313E-03
   8    9.997       8.887       7.776       6.666       5.555       4.445       3.335       2.224       1.114      3.3313E-03
   9    9.997       8.887       7.776       6.666       5.555       4.445       3.335       2.224       1.114      3.3313E-03
  10    9.997       8.887       7.776       6.666       5.555       4.445       3.335       2.224       1.114      3.3313E-03
1
              HEAD IN LAYER   3 AT END OF TIME STEP  40 IN STRESS PERIOD    2
  ---------------------------------------------------------------------------

            1           2           3           4           5           6           7           8           9          10
 ........................................................................................................................
   1    9.997       8.887       7.776       6.666       5.555       4.445       3.335       2.224       1.114      3.3313E-03
   2    9.997       8.887       7.776       6.666       5.555       4.445       3.335       2.224       1.114      3.3313E-03
   3    9.997       8.887       7.776       6.666       5.555       4.445       3.335       2.224       1.114      3.3313E-03
   4    9.997       8.887       7.776       6.666       5.555       4.445       3.335       2.224       1.114      3.3313E-03
   5    9.997       8.887       7.776       6.666       5.555       4.445       3.335       2.224       1.114      3.3313E-03
   6    9.997       8.887       7.776       6.666       5.555       4.445       3.335       2.224       1.114      3.3313E-03
   7    9.997       8.887       7.776       6.666       5.555       4.445       3.335       2.224       1.114      3.3313E-03
   8    9.997       8.887       7.776       6.666       5.555       4.445       3.335       2.224       1.114      3.3313E-03
   9    9.997       8.887       7.776       6.666       5.555       4.445       3.335       2.224       1.114      3.3313E-03
  10    9.997       8.887       7.776       6.666       5.555       4.445       3.335       2.224       1.114      3.3313E-03
1
              HEAD IN LAYER   4 AT END OF TIME STEP  40 IN STRESS PERIOD    2
  ---------------------------------------------------------------------------

            1           2           3           4           5           6           7           8           9          10
 ........................................................................................................................
   1    9.997       8.887       7.776       6.666       5.555       4.445       3.335       2.224       1.114      3.3313E-03
   2    9.997       8.887       7.776       6.666       5.555       4.445       3.335       2.224       1.114      3.3313E-03
   3    9.997       8.887       7.776       6.666       5.555       4.445       3.335       2.224       1.114      3.3313E-03
   4    9.997       8.887       7.776       6.666       5.555       4.445       3.335       2.224       1.114      3.3313E-03
   5    9.997       8.887       7.776       6.666       5.555       4.445       3.335       2.224       1.114      3.3313E-03
   6    9.997       8.887       7.776       6.666       5.555       4.445       3.335       2.224       1.114      3.3313E-03
   7    9.997       8.887       7.776       6.666       5.555       4.445       3.335       2.224       1.114      3.3313E-03
   8    9.997       8.887       7.776       6.666       5.555       4.445       3.335       2.224       1.114      3.3313E-03
   9    9.997       8.887       7.776       6.666       5.555       4.445       3.335       2.224       1.114      3.3313E-03
  10    9.997       8.887       7.776       6.666       5.555       4.445       3.335       2.224       1.114      3.3313E-03

 HEAD WILL BE SAVED ON UNIT   51 AT END OF TIME STEP   40, STRESS PERIOD    2

 DRAWDOWN WILL BE SAVED ON UNIT   52 AT END OF TIME STEP   40, STRESS PERIOD    2
1
  VOLUMETRIC BUDGET FOR ENTIRE MODEL AT END OF TIME STEP   40, STRESS PERIOD   2
  ------------------------------------------------------------------------------

     CUMULATIVE VOLUMES      L**3       RATES FOR THIS TIME STEP      L**3/T
     ------------------                 ------------------------

           IN:                                      IN:
           ---                                      ---
             STORAGE =       1.0477E-08               STORAGE =           0.0000
       CONSTANT HEAD =           0.0000         CONSTANT HEAD =           0.0000
               WELLS =           0.0000                 WELLS =           0.0000
     HEAD DEP BOUNDS =       27318.7578       HEAD DEP BOUNDS =         666.3123

            TOTAL IN =       27318.7578              TOTAL IN =         666.3123

          OUT:                                     OUT:
          ----                                     ----
             STORAGE =       5.2387E-08               STORAGE =           0.0000
       CONSTANT HEAD =           0.0000         CONSTANT HEAD =           0.0000
               WELLS =           0.0000                 WELLS =           0.0000
     HEAD DEP BOUNDS =       27316.6484       HEAD DEP BOUNDS =         666.2595

           TOTAL OUT =       27316.6484             TOTAL OUT =         666.2595

            IN - OUT =           2.1094              IN - OUT =       5.2795E-02

 PERCENT DISCREPANCY =           0.01     PERCENT DISCREPANCY =           0.01






         TIME SUMMARY AT END OF TIME STEP   40 IN STRESS PERIOD    2
                    SECONDS     MINUTES      HOURS       DAYS        YEARS
                    -----------------------------------------------------------
   TIME STEP LENGTH  86400.      1440.0      24.000      1.0000     2.73785E-03
 STRESS PERIOD TIME 3.45600E+06  57600.      960.00      40.000     0.10951    
         TOTAL TIME 3.54240E+06  59040.      984.00      41.000     0.11225    
1
 
 SOLVING FOR HEAD 

 OUTPUT CONTROL FOR STRESS PERIOD    2   TIME STEP   41
    SAVE HEAD FOR ALL LAYERS
    SAVE DRAWDOWN FOR ALL LAYERS
    SAVE BUDGET
    PRINT HEAD FOR ALL LAYERS
    PRINT BUDGET
 UBDSV1 SAVING "         STORAGE" ON UNIT  53 AT TIME STEP 41, STRESS PERIOD   2
 UBDSV2 SAVING "   CONSTANT HEAD" ON UNIT  53 AT TIME STEP 41, STRESS PERIOD   2
 UBDSV1 SAVING "FLOW RIGHT FACE " ON UNIT  53 AT TIME STEP 41, STRESS PERIOD   2
 UBDSV1 SAVING "FLOW FRONT FACE " ON UNIT  53 AT TIME STEP 41, STRESS PERIOD   2
 UBDSV1 SAVING "FLOW LOWER FACE " ON UNIT  53 AT TIME STEP 41, STRESS PERIOD   2
1
              HEAD IN LAYER   1 AT END OF TIME STEP  41 IN STRESS PERIOD    2
  ---------------------------------------------------------------------------

            1           2           3           4           5           6           7           8           9          10
 ........................................................................................................................
   1    9.997       8.887       7.776       6.666       5.555       4.445       3.335       2.224       1.114      3.3313E-03
   2    9.997       8.887       7.776       6.666       5.555       4.445       3.335       2.224       1.114      3.3313E-03
   3    9.997       8.887       7.776       6.666       5.555       4.445       3.335       2.224       1.114      3.3313E-03
   4    9.997       8.887       7.776       6.666       5.555       4.445       3.335       2.224       1.114      3.3313E-03
   5    9.997       8.887       7.776       6.666       5.555       4.445       3.335       2.224       1.114      3.3313E-03
   6    9.997       8.887       7.776       6.666       5.555       4.445       3.335       2.224       1.114      3.3313E-03
   7    9.997       8.887       7.776       6.666       5.555       4.445       3.335       2.224       1.114      3.3313E-03
   8    9.997       8.887       7.776       6.666       5.555       4.445       3.335       2.224       1.114      3.3313E-03
   9    9.997       8.887       7.776       6.666       5.555       4.445       3.335       2.224       1.114      3.3313E-03
  10    9.997       8.887       7.776       6.666       5.555       4.445       3.335       2.224       1.114      3.3313E-03
1
              HEAD IN LAYER   2 AT END OF TIME STEP  41 IN STRESS PERIOD    2
  ---------------------------------------------------------------------------

            1           2           3           4           5           6           7           8           9          10
 ........................................................................................................................
   1    9.997       8.887       7.776       6.666       5.555       4.445       3.335       2.224       1.114      3.3313E-03
   2    9.997       8.887       7.776       6.666       5.555       4.445       3.335       2.224       1.114      3.3313E-03
   3    9.997       8.887       7.776       6.666       5.555       4.445       3.335       2.224       1.114      3.3313E-03
   4    9.997       8.887       7.776       6.666       5.555       4.445       3.335       2.224       1.114      3.3313E-03
   5    9.997       8.887       7.776       6.666       5.555       4.445       3.335       2.224       1.114      3.3313E-03
   6    9.997       8.887       7.776       6.666       5.555       4.445       3.335       2.224       1.114      3.3313E-03
   7    9.997       8.887       7.776       6.666       5.555       4.445       3.335       2.224       1.114      3.3313E-03
   8    9.997       8.887       7.776       6.666       5.555       4.445       3.335       2.224       1.114      3.3313E-03
   9    9.997       8.887       7.776       6.666       5.555       4.445       3.335       2.224       1.114      3.3313E-03
  10    9.997       8.887       7.776       6.666       5.555       4.445       3.335       2.224       1.114      3.3313E-03
1
              HEAD IN LAYER   3 AT END OF TIME STEP  41 IN STRESS PERIOD    2
  ---------------------------------------------------------------------------

            1           2           3           4           5           6           7           8           9          10
 ........................................................................................................................
   1    9.997       8.887       7.776       6.666       5.555       4.445       3.335       2.224       1.114      3.3313E-03
   2    9.997       8.887       7.776       6.666       5.555       4.445       3.335       2.224       1.114      3.3313E-03
   3    9.997       8.887       7.776       6.666       5.555       4.445       3.335       2.224       1.114      3.3313E-03
   4    9.997       8.887       7.776       6.666       5.555       4.445       3.335       2.224       1.114      3.3313E-03
   5    9.997       8.887       7.776       6.666       5.555       4.445       3.335       2.224       1.114      3.3313E-03
   6    9.997       8.887       7.776       6.666       5.555       4.445       3.335       2.224       1.114      3.3313E-03
   7    9.997       8.887       7.776       6.666       5.555       4.445       3.335       2.224       1.114      3.3313E-03
   8    9.997       8.887       7.776       6.666       5.555       4.445       3.335       2.224       1.114      3.3313E-03
   9    9.997       8.887       7.776       6.666       5.555       4.445       3.335       2.224       1.114      3.3313E-03
  10    9.997       8.887       7.776       6.666       5.555       4.445       3.335       2.224       1.114      3.3313E-03
1
              HEAD IN LAYER   4 AT END OF TIME STEP  41 IN STRESS PERIOD    2
  ---------------------------------------------------------------------------

            1           2           3           4           5           6           7           8           9          10
 ........................................................................................................................
   1    9.997       8.887       7.776       6.666       5.555       4.445       3.335       2.224       1.114      3.3313E-03
   2    9.997       8.887       7.776       6.666       5.555       4.445       3.335       2.224       1.114      3.3313E-03
   3    9.997       8.887       7.776       6.666       5.555       4.445       3.335       2.224       1.114      3.3313E-03
   4    9.997       8.887       7.776       6.666       5.555       4.445       3.335       2.224       1.114      3.3313E-03
   5    9.997       8.887       7.776       6.666       5.555       4.445       3.335       2.224       1.114      3.3313E-03
   6    9.997       8.887       7.776       6.666       5.555       4.445       3.335       2.224       1.114      3.3313E-03
   7    9.997       8.887       7.776       6.666       5.555       4.445       3.335       2.224       1.114      3.3313E-03
   8    9.997       8.887       7.776       6.666       5.555       4.445       3.335       2.224       1.114      3.3313E-03
   9    9.997       8.887       7.776       6.666       5.555       4.445       3.335       2.224       1.114      3.3313E-03
  10    9.997       8.887       7.776       6.666       5.555       4.445       3.335       2.224       1.114      3.3313E-03

 HEAD WILL BE SAVED ON UNIT   51 AT END OF TIME STEP   41, STRESS PERIOD    2

 DRAWDOWN WILL BE SAVED ON UNIT   52 AT END OF TIME STEP   41, STRESS PERIOD    2
1
  VOLUMETRIC BUDGET FOR ENTIRE MODEL AT END OF TIME STEP   41, STRESS PERIOD   2
  ------------------------------------------------------------------------------

     CUMULATIVE VOLUMES      L**3       RATES FOR THIS TIME STEP      L**3/T
     ------------------                 ------------------------

           IN:                                      IN:
           ---                                      ---
             STORAGE =       1.0477E-08               STORAGE =           0.0000
       CONSTANT HEAD =           0.0000         CONSTANT HEAD =           0.0000
               WELLS =           0.0000                 WELLS =           0.0000
     HEAD DEP BOUNDS =       27985.0703       HEAD DEP BOUNDS =         666.3123

            TOTAL IN =       27985.0703              TOTAL IN =         666.3123

          OUT:                                     OUT:
          ----                                     ----
             STORAGE =       5.2387E-08               STORAGE =           0.0000
       CONSTANT HEAD =           0.0000         CONSTANT HEAD =           0.0000
               WELLS =           0.0000                 WELLS =           0.0000
     HEAD DEP BOUNDS =       27982.9082       HEAD DEP BOUNDS =         666.2595

           TOTAL OUT =       27982.9082             TOTAL OUT =         666.2595

            IN - OUT =           2.1621              IN - OUT =       5.2795E-02

 PERCENT DISCREPANCY =           0.01     PERCENT DISCREPANCY =           0.01






         TIME SUMMARY AT END OF TIME STEP   41 IN STRESS PERIOD    2
                    SECONDS     MINUTES      HOURS       DAYS        YEARS
                    -----------------------------------------------------------
   TIME STEP LENGTH  86400.      1440.0      24.000      1.0000     2.73785E-03
 STRESS PERIOD TIME 3.54240E+06  59040.      984.00      41.000     0.11225    
         TOTAL TIME 3.62880E+06  60480.      1008.0      42.000     0.11499    
1
 
 SOLVING FOR HEAD 

 OUTPUT CONTROL FOR STRESS PERIOD    2   TIME STEP   42
    SAVE HEAD FOR ALL LAYERS
    SAVE DRAWDOWN FOR ALL LAYERS
    SAVE BUDGET
    PRINT HEAD FOR ALL LAYERS
    PRINT BUDGET
 UBDSV1 SAVING "         STORAGE" ON UNIT  53 AT TIME STEP 42, STRESS PERIOD   2
 UBDSV2 SAVING "   CONSTANT HEAD" ON UNIT  53 AT TIME STEP 42, STRESS PERIOD   2
 UBDSV1 SAVING "FLOW RIGHT FACE " ON UNIT  53 AT TIME STEP 42, STRESS PERIOD   2
 UBDSV1 SAVING "FLOW FRONT FACE " ON UNIT  53 AT TIME STEP 42, STRESS PERIOD   2
 UBDSV1 SAVING "FLOW LOWER FACE " ON UNIT  53 AT TIME STEP 42, STRESS PERIOD   2
1
              HEAD IN LAYER   1 AT END OF TIME STEP  42 IN STRESS PERIOD    2
  ---------------------------------------------------------------------------

            1           2           3           4           5           6           7           8           9          10
 ........................................................................................................................
   1    9.997       8.887       7.776       6.666       5.555       4.445       3.335       2.224       1.114      3.3313E-03
   2    9.997       8.887       7.776       6.666       5.555       4.445       3.335       2.224       1.114      3.3313E-03
   3    9.997       8.887       7.776       6.666       5.555       4.445       3.335       2.224       1.114      3.3313E-03
   4    9.997       8.887       7.776       6.666       5.555       4.445       3.335       2.224       1.114      3.3313E-03
   5    9.997       8.887       7.776       6.666       5.555       4.445       3.335       2.224       1.114      3.3313E-03
   6    9.997       8.887       7.776       6.666       5.555       4.445       3.335       2.224       1.114      3.3313E-03
   7    9.997       8.887       7.776       6.666       5.555       4.445       3.335       2.224       1.114      3.3313E-03
   8    9.997       8.887       7.776       6.666       5.555       4.445       3.335       2.224       1.114      3.3313E-03
   9    9.997       8.887       7.776       6.666       5.555       4.445       3.335       2.224       1.114      3.3313E-03
  10    9.997       8.887       7.776       6.666       5.555       4.445       3.335       2.224       1.114      3.3313E-03
1
              HEAD IN LAYER   2 AT END OF TIME STEP  42 IN STRESS PERIOD    2
  ---------------------------------------------------------------------------

            1           2           3           4           5           6           7           8           9          10
 ........................................................................................................................
   1    9.997       8.887       7.776       6.666       5.555       4.445       3.335       2.224       1.114      3.3313E-03
   2    9.997       8.887       7.776       6.666       5.555       4.445       3.335       2.224       1.114      3.3313E-03
   3    9.997       8.887       7.776       6.666       5.555       4.445       3.335       2.224       1.114      3.3313E-03
   4    9.997       8.887       7.776       6.666       5.555       4.445       3.335       2.224       1.114      3.3313E-03
   5    9.997       8.887       7.776       6.666       5.555       4.445       3.335       2.224       1.114      3.3313E-03
   6    9.997       8.887       7.776       6.666       5.555       4.445       3.335       2.224       1.114      3.3313E-03
   7    9.997       8.887       7.776       6.666       5.555       4.445       3.335       2.224       1.114      3.3313E-03
   8    9.997       8.887       7.776       6.666       5.555       4.445       3.335       2.224       1.114      3.3313E-03
   9    9.997       8.887       7.776       6.666       5.555       4.445       3.335       2.224       1.114      3.3313E-03
  10    9.997       8.887       7.776       6.666       5.555       4.445       3.335       2.224       1.114      3.3313E-03
1
              HEAD IN LAYER   3 AT END OF TIME STEP  42 IN STRESS PERIOD    2
  ---------------------------------------------------------------------------

            1           2           3           4           5           6           7           8           9          10
 ........................................................................................................................
   1    9.997       8.887       7.776       6.666       5.555       4.445       3.335       2.224       1.114      3.3313E-03
   2    9.997       8.887       7.776       6.666       5.555       4.445       3.335       2.224       1.114      3.3313E-03
   3    9.997       8.887       7.776       6.666       5.555       4.445       3.335       2.224       1.114      3.3313E-03
   4    9.997       8.887       7.776       6.666       5.555       4.445       3.335       2.224       1.114      3.3313E-03
   5    9.997       8.887       7.776       6.666       5.555       4.445       3.335       2.224       1.114      3.3313E-03
   6    9.997       8.887       7.776       6.666       5.555       4.445       3.335       2.224       1.114      3.3313E-03
   7    9.997       8.887       7.776       6.666       5.555       4.445       3.335       2.224       1.114      3.3313E-03
   8    9.997       8.887       7.776       6.666       5.555       4.445       3.335       2.224       1.114      3.3313E-03
   9    9.997       8.887       7.776       6.666       5.555       4.445       3.335       2.224       1.114      3.3313E-03
  10    9.997       8.887       7.776       6.666       5.555       4.445       3.335       2.224       1.114      3.3313E-03
1
              HEAD IN LAYER   4 AT END OF TIME STEP  42 IN STRESS PERIOD    2
  ---------------------------------------------------------------------------

            1           2           3           4           5           6           7           8           9          10
 ........................................................................................................................
   1    9.997       8.887       7.776       6.666       5.555       4.445       3.335       2.224       1.114      3.3313E-03
   2    9.997       8.887       7.776       6.666       5.555       4.445       3.335       2.224       1.114      3.3313E-03
   3    9.997       8.887       7.776       6.666       5.555       4.445       3.335       2.224       1.114      3.3313E-03
   4    9.997       8.887       7.776       6.666       5.555       4.445       3.335       2.224       1.114      3.3313E-03
   5    9.997       8.887       7.776       6.666       5.555       4.445       3.335       2.224       1.114      3.3313E-03
   6    9.997       8.887       7.776       6.666       5.555       4.445       3.335       2.224       1.114      3.3313E-03
   7    9.997       8.887       7.776       6.666       5.555       4.445       3.335       2.224       1.114      3.3313E-03
   8    9.997       8.887       7.776       6.666       5.555       4.445       3.335       2.224       1.114      3.3313E-03
   9    9.997       8.887       7.776       6.666       5.555       4.445       3.335       2.224       1.114      3.3313E-03
  10    9.997       8.887       7.776       6.666       5.555       4.445       3.335       2.224       1.114      3.3313E-03

 HEAD WILL BE SAVED ON UNIT   51 AT END OF TIME STEP   42, STRESS PERIOD    2

 DRAWDOWN WILL BE SAVED ON UNIT   52 AT END OF TIME STEP   42, STRESS PERIOD    2
1
  VOLUMETRIC BUDGET FOR ENTIRE MODEL AT END OF TIME STEP   42, STRESS PERIOD   2
  ------------------------------------------------------------------------------

     CUMULATIVE VOLUMES      L**3       RATES FOR THIS TIME STEP      L**3/T
     ------------------                 ------------------------

           IN:                                      IN:
           ---                                      ---
             STORAGE =       1.0477E-08               STORAGE =           0.0000
       CONSTANT HEAD =           0.0000         CONSTANT HEAD =           0.0000
               WELLS =           0.0000                 WELLS =           0.0000
     HEAD DEP BOUNDS =       28651.3828       HEAD DEP BOUNDS =         666.3123

            TOTAL IN =       28651.3828              TOTAL IN =         666.3123

          OUT:                                     OUT:
          ----                                     ----
             STORAGE =       5.2387E-08               STORAGE =           0.0000
       CONSTANT HEAD =           0.0000         CONSTANT HEAD =           0.0000
               WELLS =           0.0000                 WELLS =           0.0000
     HEAD DEP BOUNDS =       28649.1680       HEAD DEP BOUNDS =         666.2595

           TOTAL OUT =       28649.1680             TOTAL OUT =         666.2595

            IN - OUT =           2.2148              IN - OUT =       5.2795E-02

 PERCENT DISCREPANCY =           0.01     PERCENT DISCREPANCY =           0.01






         TIME SUMMARY AT END OF TIME STEP   42 IN STRESS PERIOD    2
                    SECONDS     MINUTES      HOURS       DAYS        YEARS
                    -----------------------------------------------------------
   TIME STEP LENGTH  86400.      1440.0      24.000      1.0000     2.73785E-03
 STRESS PERIOD TIME 3.62880E+06  60480.      1008.0      42.000     0.11499    
         TOTAL TIME 3.71520E+06  61920.      1032.0      43.000     0.11773    
1
 
 SOLVING FOR HEAD 

 OUTPUT CONTROL FOR STRESS PERIOD    2   TIME STEP   43
    SAVE HEAD FOR ALL LAYERS
    SAVE DRAWDOWN FOR ALL LAYERS
    SAVE BUDGET
    PRINT HEAD FOR ALL LAYERS
    PRINT BUDGET
 UBDSV1 SAVING "         STORAGE" ON UNIT  53 AT TIME STEP 43, STRESS PERIOD   2
 UBDSV2 SAVING "   CONSTANT HEAD" ON UNIT  53 AT TIME STEP 43, STRESS PERIOD   2
 UBDSV1 SAVING "FLOW RIGHT FACE " ON UNIT  53 AT TIME STEP 43, STRESS PERIOD   2
 UBDSV1 SAVING "FLOW FRONT FACE " ON UNIT  53 AT TIME STEP 43, STRESS PERIOD   2
 UBDSV1 SAVING "FLOW LOWER FACE " ON UNIT  53 AT TIME STEP 43, STRESS PERIOD   2
1
              HEAD IN LAYER   1 AT END OF TIME STEP  43 IN STRESS PERIOD    2
  ---------------------------------------------------------------------------

            1           2           3           4           5           6           7           8           9          10
 ........................................................................................................................
   1    9.997       8.887       7.776       6.666       5.555       4.445       3.335       2.224       1.114      3.3313E-03
   2    9.997       8.887       7.776       6.666       5.555       4.445       3.335       2.224       1.114      3.3313E-03
   3    9.997       8.887       7.776       6.666       5.555       4.445       3.335       2.224       1.114      3.3313E-03
   4    9.997       8.887       7.776       6.666       5.555       4.445       3.335       2.224       1.114      3.3313E-03
   5    9.997       8.887       7.776       6.666       5.555       4.445       3.335       2.224       1.114      3.3313E-03
   6    9.997       8.887       7.776       6.666       5.555       4.445       3.335       2.224       1.114      3.3313E-03
   7    9.997       8.887       7.776       6.666       5.555       4.445       3.335       2.224       1.114      3.3313E-03
   8    9.997       8.887       7.776       6.666       5.555       4.445       3.335       2.224       1.114      3.3313E-03
   9    9.997       8.887       7.776       6.666       5.555       4.445       3.335       2.224       1.114      3.3313E-03
  10    9.997       8.887       7.776       6.666       5.555       4.445       3.335       2.224       1.114      3.3313E-03
1
              HEAD IN LAYER   2 AT END OF TIME STEP  43 IN STRESS PERIOD    2
  ---------------------------------------------------------------------------

            1           2           3           4           5           6           7           8           9          10
 ........................................................................................................................
   1    9.997       8.887       7.776       6.666       5.555       4.445       3.335       2.224       1.114      3.3313E-03
   2    9.997       8.887       7.776       6.666       5.555       4.445       3.335       2.224       1.114      3.3313E-03
   3    9.997       8.887       7.776       6.666       5.555       4.445       3.335       2.224       1.114      3.3313E-03
   4    9.997       8.887       7.776       6.666       5.555       4.445       3.335       2.224       1.114      3.3313E-03
   5    9.997       8.887       7.776       6.666       5.555       4.445       3.335       2.224       1.114      3.3313E-03
   6    9.997       8.887       7.776       6.666       5.555       4.445       3.335       2.224       1.114      3.3313E-03
   7    9.997       8.887       7.776       6.666       5.555       4.445       3.335       2.224       1.114      3.3313E-03
   8    9.997       8.887       7.776       6.666       5.555       4.445       3.335       2.224       1.114      3.3313E-03
   9    9.997       8.887       7.776       6.666       5.555       4.445       3.335       2.224       1.114      3.3313E-03
  10    9.997       8.887       7.776       6.666       5.555       4.445       3.335       2.224       1.114      3.3313E-03
1
              HEAD IN LAYER   3 AT END OF TIME STEP  43 IN STRESS PERIOD    2
  ---------------------------------------------------------------------------

            1           2           3           4           5           6           7           8           9          10
 ........................................................................................................................
   1    9.997       8.887       7.776       6.666       5.555       4.445       3.335       2.224       1.114      3.3313E-03
   2    9.997       8.887       7.776       6.666       5.555       4.445       3.335       2.224       1.114      3.3313E-03
   3    9.997       8.887       7.776       6.666       5.555       4.445       3.335       2.224       1.114      3.3313E-03
   4    9.997       8.887       7.776       6.666       5.555       4.445       3.335       2.224       1.114      3.3313E-03
   5    9.997       8.887       7.776       6.666       5.555       4.445       3.335       2.224       1.114      3.3313E-03
   6    9.997       8.887       7.776       6.666       5.555       4.445       3.335       2.224       1.114      3.3313E-03
   7    9.997       8.887       7.776       6.666       5.555       4.445       3.335       2.224       1.114      3.3313E-03
   8    9.997       8.887       7.776       6.666       5.555       4.445       3.335       2.224       1.114      3.3313E-03
   9    9.997       8.887       7.776       6.666       5.555       4.445       3.335       2.224       1.114      3.3313E-03
  10    9.997       8.887       7.776       6.666       5.555       4.445       3.335       2.224       1.114      3.3313E-03
1
              HEAD IN LAYER   4 AT END OF TIME STEP  43 IN STRESS PERIOD    2
  ---------------------------------------------------------------------------

            1           2           3           4           5           6           7           8           9          10
 ........................................................................................................................
   1    9.997       8.887       7.776       6.666       5.555       4.445       3.335       2.224       1.114      3.3313E-03
   2    9.997       8.887       7.776       6.666       5.555       4.445       3.335       2.224       1.114      3.3313E-03
   3    9.997       8.887       7.776       6.666       5.555       4.445       3.335       2.224       1.114      3.3313E-03
   4    9.997       8.887       7.776       6.666       5.555       4.445       3.335       2.224       1.114      3.3313E-03
   5    9.997       8.887       7.776       6.666       5.555       4.445       3.335       2.224       1.114      3.3313E-03
   6    9.997       8.887       7.776       6.666       5.555       4.445       3.335       2.224       1.114      3.3313E-03
   7    9.997       8.887       7.776       6.666       5.555       4.445       3.335       2.224       1.114      3.3313E-03
   8    9.997       8.887       7.776       6.666       5.555       4.445       3.335       2.224       1.114      3.3313E-03
   9    9.997       8.887       7.776       6.666       5.555       4.445       3.335       2.224       1.114      3.3313E-03
  10    9.997       8.887       7.776       6.666       5.555       4.445       3.335       2.224       1.114      3.3313E-03

 HEAD WILL BE SAVED ON UNIT   51 AT END OF TIME STEP   43, STRESS PERIOD    2

 DRAWDOWN WILL BE SAVED ON UNIT   52 AT END OF TIME STEP   43, STRESS PERIOD    2
1
  VOLUMETRIC BUDGET FOR ENTIRE MODEL AT END OF TIME STEP   43, STRESS PERIOD   2
  ------------------------------------------------------------------------------

     CUMULATIVE VOLUMES      L**3       RATES FOR THIS TIME STEP      L**3/T
     ------------------                 ------------------------

           IN:                                      IN:
           ---                                      ---
             STORAGE =       1.0477E-08               STORAGE =           0.0000
       CONSTANT HEAD =           0.0000         CONSTANT HEAD =           0.0000
               WELLS =           0.0000                 WELLS =           0.0000
     HEAD DEP BOUNDS =       29317.6953       HEAD DEP BOUNDS =         666.3123

            TOTAL IN =       29317.6953              TOTAL IN =         666.3123

          OUT:                                     OUT:
          ----                                     ----
             STORAGE =       5.2387E-08               STORAGE =           0.0000
       CONSTANT HEAD =           0.0000         CONSTANT HEAD =           0.0000
               WELLS =           0.0000                 WELLS =           0.0000
     HEAD DEP BOUNDS =       29315.4277       HEAD DEP BOUNDS =         666.2595

           TOTAL OUT =       29315.4277             TOTAL OUT =         666.2595

            IN - OUT =           2.2676              IN - OUT =       5.2795E-02

 PERCENT DISCREPANCY =           0.01     PERCENT DISCREPANCY =           0.01






         TIME SUMMARY AT END OF TIME STEP   43 IN STRESS PERIOD    2
                    SECONDS     MINUTES      HOURS       DAYS        YEARS
                    -----------------------------------------------------------
   TIME STEP LENGTH  86400.      1440.0      24.000      1.0000     2.73785E-03
 STRESS PERIOD TIME 3.71520E+06  61920.      1032.0      43.000     0.11773    
         TOTAL TIME 3.80160E+06  63360.      1056.0      44.000     0.12047    
1
 
 SOLVING FOR HEAD 

 OUTPUT CONTROL FOR STRESS PERIOD    2   TIME STEP   44
    SAVE HEAD FOR ALL LAYERS
    SAVE DRAWDOWN FOR ALL LAYERS
    SAVE BUDGET
    PRINT HEAD FOR ALL LAYERS
    PRINT BUDGET
 UBDSV1 SAVING "         STORAGE" ON UNIT  53 AT TIME STEP 44, STRESS PERIOD   2
 UBDSV2 SAVING "   CONSTANT HEAD" ON UNIT  53 AT TIME STEP 44, STRESS PERIOD   2
 UBDSV1 SAVING "FLOW RIGHT FACE " ON UNIT  53 AT TIME STEP 44, STRESS PERIOD   2
 UBDSV1 SAVING "FLOW FRONT FACE " ON UNIT  53 AT TIME STEP 44, STRESS PERIOD   2
 UBDSV1 SAVING "FLOW LOWER FACE " ON UNIT  53 AT TIME STEP 44, STRESS PERIOD   2
1
              HEAD IN LAYER   1 AT END OF TIME STEP  44 IN STRESS PERIOD    2
  ---------------------------------------------------------------------------

            1           2           3           4           5           6           7           8           9          10
 ........................................................................................................................
   1    9.997       8.887       7.776       6.666       5.555       4.445       3.335       2.224       1.114      3.3313E-03
   2    9.997       8.887       7.776       6.666       5.555       4.445       3.335       2.224       1.114      3.3313E-03
   3    9.997       8.887       7.776       6.666       5.555       4.445       3.335       2.224       1.114      3.3313E-03
   4    9.997       8.887       7.776       6.666       5.555       4.445       3.335       2.224       1.114      3.3313E-03
   5    9.997       8.887       7.776       6.666       5.555       4.445       3.335       2.224       1.114      3.3313E-03
   6    9.997       8.887       7.776       6.666       5.555       4.445       3.335       2.224       1.114      3.3313E-03
   7    9.997       8.887       7.776       6.666       5.555       4.445       3.335       2.224       1.114      3.3313E-03
   8    9.997       8.887       7.776       6.666       5.555       4.445       3.335       2.224       1.114      3.3313E-03
   9    9.997       8.887       7.776       6.666       5.555       4.445       3.335       2.224       1.114      3.3313E-03
  10    9.997       8.887       7.776       6.666       5.555       4.445       3.335       2.224       1.114      3.3313E-03
1
              HEAD IN LAYER   2 AT END OF TIME STEP  44 IN STRESS PERIOD    2
  ---------------------------------------------------------------------------

            1           2           3           4           5           6           7           8           9          10
 ........................................................................................................................
   1    9.997       8.887       7.776       6.666       5.555       4.445       3.335       2.224       1.114      3.3313E-03
   2    9.997       8.887       7.776       6.666       5.555       4.445       3.335       2.224       1.114      3.3313E-03
   3    9.997       8.887       7.776       6.666       5.555       4.445       3.335       2.224       1.114      3.3313E-03
   4    9.997       8.887       7.776       6.666       5.555       4.445       3.335       2.224       1.114      3.3313E-03
   5    9.997       8.887       7.776       6.666       5.555       4.445       3.335       2.224       1.114      3.3313E-03
   6    9.997       8.887       7.776       6.666       5.555       4.445       3.335       2.224       1.114      3.3313E-03
   7    9.997       8.887       7.776       6.666       5.555       4.445       3.335       2.224       1.114      3.3313E-03
   8    9.997       8.887       7.776       6.666       5.555       4.445       3.335       2.224       1.114      3.3313E-03
   9    9.997       8.887       7.776       6.666       5.555       4.445       3.335       2.224       1.114      3.3313E-03
  10    9.997       8.887       7.776       6.666       5.555       4.445       3.335       2.224       1.114      3.3313E-03
1
              HEAD IN LAYER   3 AT END OF TIME STEP  44 IN STRESS PERIOD    2
  ---------------------------------------------------------------------------

            1           2           3           4           5           6           7           8           9          10
 ........................................................................................................................
   1    9.997       8.887       7.776       6.666       5.555       4.445       3.335       2.224       1.114      3.3313E-03
   2    9.997       8.887       7.776       6.666       5.555       4.445       3.335       2.224       1.114      3.3313E-03
   3    9.997       8.887       7.776       6.666       5.555       4.445       3.335       2.224       1.114      3.3313E-03
   4    9.997       8.887       7.776       6.666       5.555       4.445       3.335       2.224       1.114      3.3313E-03
   5    9.997       8.887       7.776       6.666       5.555       4.445       3.335       2.224       1.114      3.3313E-03
   6    9.997       8.887       7.776       6.666       5.555       4.445       3.335       2.224       1.114      3.3313E-03
   7    9.997       8.887       7.776       6.666       5.555       4.445       3.335       2.224       1.114      3.3313E-03
   8    9.997       8.887       7.776       6.666       5.555       4.445       3.335       2.224       1.114      3.3313E-03
   9    9.997       8.887       7.776       6.666       5.555       4.445       3.335       2.224       1.114      3.3313E-03
  10    9.997       8.887       7.776       6.666       5.555       4.445       3.335       2.224       1.114      3.3313E-03
1
              HEAD IN LAYER   4 AT END OF TIME STEP  44 IN STRESS PERIOD    2
  ---------------------------------------------------------------------------

            1           2           3           4           5           6           7           8           9          10
 ........................................................................................................................
   1    9.997       8.887       7.776       6.666       5.555       4.445       3.335       2.224       1.114      3.3313E-03
   2    9.997       8.887       7.776       6.666       5.555       4.445       3.335       2.224       1.114      3.3313E-03
   3    9.997       8.887       7.776       6.666       5.555       4.445       3.335       2.224       1.114      3.3313E-03
   4    9.997       8.887       7.776       6.666       5.555       4.445       3.335       2.224       1.114      3.3313E-03
   5    9.997       8.887       7.776       6.666       5.555       4.445       3.335       2.224       1.114      3.3313E-03
   6    9.997       8.887       7.776       6.666       5.555       4.445       3.335       2.224       1.114      3.3313E-03
   7    9.997       8.887       7.776       6.666       5.555       4.445       3.335       2.224       1.114      3.3313E-03
   8    9.997       8.887       7.776       6.666       5.555       4.445       3.335       2.224       1.114      3.3313E-03
   9    9.997       8.887       7.776       6.666       5.555       4.445       3.335       2.224       1.114      3.3313E-03
  10    9.997       8.887       7.776       6.666       5.555       4.445       3.335       2.224       1.114      3.3313E-03

 HEAD WILL BE SAVED ON UNIT   51 AT END OF TIME STEP   44, STRESS PERIOD    2

 DRAWDOWN WILL BE SAVED ON UNIT   52 AT END OF TIME STEP   44, STRESS PERIOD    2
1
  VOLUMETRIC BUDGET FOR ENTIRE MODEL AT END OF TIME STEP   44, STRESS PERIOD   2
  ------------------------------------------------------------------------------

     CUMULATIVE VOLUMES      L**3       RATES FOR THIS TIME STEP      L**3/T
     ------------------                 ------------------------

           IN:                                      IN:
           ---                                      ---
             STORAGE =       1.0477E-08               STORAGE =           0.0000
       CONSTANT HEAD =           0.0000         CONSTANT HEAD =           0.0000
               WELLS =           0.0000                 WELLS =           0.0000
     HEAD DEP BOUNDS =       29984.0078       HEAD DEP BOUNDS =         666.3123

            TOTAL IN =       29984.0078              TOTAL IN =         666.3123

          OUT:                                     OUT:
          ----                                     ----
             STORAGE =       5.2387E-08               STORAGE =           0.0000
       CONSTANT HEAD =           0.0000         CONSTANT HEAD =           0.0000
               WELLS =           0.0000                 WELLS =           0.0000
     HEAD DEP BOUNDS =       29981.6875       HEAD DEP BOUNDS =         666.2595

           TOTAL OUT =       29981.6875             TOTAL OUT =         666.2595

            IN - OUT =           2.3203              IN - OUT =       5.2795E-02

 PERCENT DISCREPANCY =           0.01     PERCENT DISCREPANCY =           0.01






         TIME SUMMARY AT END OF TIME STEP   44 IN STRESS PERIOD    2
                    SECONDS     MINUTES      HOURS       DAYS        YEARS
                    -----------------------------------------------------------
   TIME STEP LENGTH  86400.      1440.0      24.000      1.0000     2.73785E-03
 STRESS PERIOD TIME 3.80160E+06  63360.      1056.0      44.000     0.12047    
         TOTAL TIME 3.88800E+06  64800.      1080.0      45.000     0.12320    
1
 
 SOLVING FOR HEAD 

 OUTPUT CONTROL FOR STRESS PERIOD    2   TIME STEP   45
    SAVE HEAD FOR ALL LAYERS
    SAVE DRAWDOWN FOR ALL LAYERS
    SAVE BUDGET
    PRINT HEAD FOR ALL LAYERS
    PRINT BUDGET
 UBDSV1 SAVING "         STORAGE" ON UNIT  53 AT TIME STEP 45, STRESS PERIOD   2
 UBDSV2 SAVING "   CONSTANT HEAD" ON UNIT  53 AT TIME STEP 45, STRESS PERIOD   2
 UBDSV1 SAVING "FLOW RIGHT FACE " ON UNIT  53 AT TIME STEP 45, STRESS PERIOD   2
 UBDSV1 SAVING "FLOW FRONT FACE " ON UNIT  53 AT TIME STEP 45, STRESS PERIOD   2
 UBDSV1 SAVING "FLOW LOWER FACE " ON UNIT  53 AT TIME STEP 45, STRESS PERIOD   2
1
              HEAD IN LAYER   1 AT END OF TIME STEP  45 IN STRESS PERIOD    2
  ---------------------------------------------------------------------------

            1           2           3           4           5           6           7           8           9          10
 ........................................................................................................................
   1    9.997       8.887       7.776       6.666       5.555       4.445       3.335       2.224       1.114      3.3313E-03
   2    9.997       8.887       7.776       6.666       5.555       4.445       3.335       2.224       1.114      3.3313E-03
   3    9.997       8.887       7.776       6.666       5.555       4.445       3.335       2.224       1.114      3.3313E-03
   4    9.997       8.887       7.776       6.666       5.555       4.445       3.335       2.224       1.114      3.3313E-03
   5    9.997       8.887       7.776       6.666       5.555       4.445       3.335       2.224       1.114      3.3313E-03
   6    9.997       8.887       7.776       6.666       5.555       4.445       3.335       2.224       1.114      3.3313E-03
   7    9.997       8.887       7.776       6.666       5.555       4.445       3.335       2.224       1.114      3.3313E-03
   8    9.997       8.887       7.776       6.666       5.555       4.445       3.335       2.224       1.114      3.3313E-03
   9    9.997       8.887       7.776       6.666       5.555       4.445       3.335       2.224       1.114      3.3313E-03
  10    9.997       8.887       7.776       6.666       5.555       4.445       3.335       2.224       1.114      3.3313E-03
1
              HEAD IN LAYER   2 AT END OF TIME STEP  45 IN STRESS PERIOD    2
  ---------------------------------------------------------------------------

            1           2           3           4           5           6           7           8           9          10
 ........................................................................................................................
   1    9.997       8.887       7.776       6.666       5.555       4.445       3.335       2.224       1.114      3.3313E-03
   2    9.997       8.887       7.776       6.666       5.555       4.445       3.335       2.224       1.114      3.3313E-03
   3    9.997       8.887       7.776       6.666       5.555       4.445       3.335       2.224       1.114      3.3313E-03
   4    9.997       8.887       7.776       6.666       5.555       4.445       3.335       2.224       1.114      3.3313E-03
   5    9.997       8.887       7.776       6.666       5.555       4.445       3.335       2.224       1.114      3.3313E-03
   6    9.997       8.887       7.776       6.666       5.555       4.445       3.335       2.224       1.114      3.3313E-03
   7    9.997       8.887       7.776       6.666       5.555       4.445       3.335       2.224       1.114      3.3313E-03
   8    9.997       8.887       7.776       6.666       5.555       4.445       3.335       2.224       1.114      3.3313E-03
   9    9.997       8.887       7.776       6.666       5.555       4.445       3.335       2.224       1.114      3.3313E-03
  10    9.997       8.887       7.776       6.666       5.555       4.445       3.335       2.224       1.114      3.3313E-03
1
              HEAD IN LAYER   3 AT END OF TIME STEP  45 IN STRESS PERIOD    2
  ---------------------------------------------------------------------------

            1           2           3           4           5           6           7           8           9          10
 ........................................................................................................................
   1    9.997       8.887       7.776       6.666       5.555       4.445       3.335       2.224       1.114      3.3313E-03
   2    9.997       8.887       7.776       6.666       5.555       4.445       3.335       2.224       1.114      3.3313E-03
   3    9.997       8.887       7.776       6.666       5.555       4.445       3.335       2.224       1.114      3.3313E-03
   4    9.997       8.887       7.776       6.666       5.555       4.445       3.335       2.224       1.114      3.3313E-03
   5    9.997       8.887       7.776       6.666       5.555       4.445       3.335       2.224       1.114      3.3313E-03
   6    9.997       8.887       7.776       6.666       5.555       4.445       3.335       2.224       1.114      3.3313E-03
   7    9.997       8.887       7.776       6.666       5.555       4.445       3.335       2.224       1.114      3.3313E-03
   8    9.997       8.887       7.776       6.666       5.555       4.445       3.335       2.224       1.114      3.3313E-03
   9    9.997       8.887       7.776       6.666       5.555       4.445       3.335       2.224       1.114      3.3313E-03
  10    9.997       8.887       7.776       6.666       5.555       4.445       3.335       2.224       1.114      3.3313E-03
1
              HEAD IN LAYER   4 AT END OF TIME STEP  45 IN STRESS PERIOD    2
  ---------------------------------------------------------------------------

            1           2           3           4           5           6           7           8           9          10
 ........................................................................................................................
   1    9.997       8.887       7.776       6.666       5.555       4.445       3.335       2.224       1.114      3.3313E-03
   2    9.997       8.887       7.776       6.666       5.555       4.445       3.335       2.224       1.114      3.3313E-03
   3    9.997       8.887       7.776       6.666       5.555       4.445       3.335       2.224       1.114      3.3313E-03
   4    9.997       8.887       7.776       6.666       5.555       4.445       3.335       2.224       1.114      3.3313E-03
   5    9.997       8.887       7.776       6.666       5.555       4.445       3.335       2.224       1.114      3.3313E-03
   6    9.997       8.887       7.776       6.666       5.555       4.445       3.335       2.224       1.114      3.3313E-03
   7    9.997       8.887       7.776       6.666       5.555       4.445       3.335       2.224       1.114      3.3313E-03
   8    9.997       8.887       7.776       6.666       5.555       4.445       3.335       2.224       1.114      3.3313E-03
   9    9.997       8.887       7.776       6.666       5.555       4.445       3.335       2.224       1.114      3.3313E-03
  10    9.997       8.887       7.776       6.666       5.555       4.445       3.335       2.224       1.114      3.3313E-03

 HEAD WILL BE SAVED ON UNIT   51 AT END OF TIME STEP   45, STRESS PERIOD    2

 DRAWDOWN WILL BE SAVED ON UNIT   52 AT END OF TIME STEP   45, STRESS PERIOD    2
1
  VOLUMETRIC BUDGET FOR ENTIRE MODEL AT END OF TIME STEP   45, STRESS PERIOD   2
  ------------------------------------------------------------------------------

     CUMULATIVE VOLUMES      L**3       RATES FOR THIS TIME STEP      L**3/T
     ------------------                 ------------------------

           IN:                                      IN:
           ---                                      ---
             STORAGE =       1.0477E-08               STORAGE =           0.0000
       CONSTANT HEAD =           0.0000         CONSTANT HEAD =           0.0000
               WELLS =           0.0000                 WELLS =           0.0000
     HEAD DEP BOUNDS =       30650.3203       HEAD DEP BOUNDS =         666.3123

            TOTAL IN =       30650.3203              TOTAL IN =         666.3123

          OUT:                                     OUT:
          ----                                     ----
             STORAGE =       5.2387E-08               STORAGE =           0.0000
       CONSTANT HEAD =           0.0000         CONSTANT HEAD =           0.0000
               WELLS =           0.0000                 WELLS =           0.0000
     HEAD DEP BOUNDS =       30647.9473       HEAD DEP BOUNDS =         666.2595

           TOTAL OUT =       30647.9473             TOTAL OUT =         666.2595

            IN - OUT =           2.3730              IN - OUT =       5.2795E-02

 PERCENT DISCREPANCY =           0.01     PERCENT DISCREPANCY =           0.01






         TIME SUMMARY AT END OF TIME STEP   45 IN STRESS PERIOD    2
                    SECONDS     MINUTES      HOURS       DAYS        YEARS
                    -----------------------------------------------------------
   TIME STEP LENGTH  86400.      1440.0      24.000      1.0000     2.73785E-03
 STRESS PERIOD TIME 3.88800E+06  64800.      1080.0      45.000     0.12320    
         TOTAL TIME 3.97440E+06  66240.      1104.0      46.000     0.12594    
1
 
 SOLVING FOR HEAD 

 OUTPUT CONTROL FOR STRESS PERIOD    2   TIME STEP   46
    SAVE HEAD FOR ALL LAYERS
    SAVE DRAWDOWN FOR ALL LAYERS
    SAVE BUDGET
    PRINT HEAD FOR ALL LAYERS
    PRINT BUDGET
 UBDSV1 SAVING "         STORAGE" ON UNIT  53 AT TIME STEP 46, STRESS PERIOD   2
 UBDSV2 SAVING "   CONSTANT HEAD" ON UNIT  53 AT TIME STEP 46, STRESS PERIOD   2
 UBDSV1 SAVING "FLOW RIGHT FACE " ON UNIT  53 AT TIME STEP 46, STRESS PERIOD   2
 UBDSV1 SAVING "FLOW FRONT FACE " ON UNIT  53 AT TIME STEP 46, STRESS PERIOD   2
 UBDSV1 SAVING "FLOW LOWER FACE " ON UNIT  53 AT TIME STEP 46, STRESS PERIOD   2
1
              HEAD IN LAYER   1 AT END OF TIME STEP  46 IN STRESS PERIOD    2
  ---------------------------------------------------------------------------

            1           2           3           4           5           6           7           8           9          10
 ........................................................................................................................
   1    9.997       8.887       7.776       6.666       5.555       4.445       3.335       2.224       1.114      3.3313E-03
   2    9.997       8.887       7.776       6.666       5.555       4.445       3.335       2.224       1.114      3.3313E-03
   3    9.997       8.887       7.776       6.666       5.555       4.445       3.335       2.224       1.114      3.3313E-03
   4    9.997       8.887       7.776       6.666       5.555       4.445       3.335       2.224       1.114      3.3313E-03
   5    9.997       8.887       7.776       6.666       5.555       4.445       3.335       2.224       1.114      3.3313E-03
   6    9.997       8.887       7.776       6.666       5.555       4.445       3.335       2.224       1.114      3.3313E-03
   7    9.997       8.887       7.776       6.666       5.555       4.445       3.335       2.224       1.114      3.3313E-03
   8    9.997       8.887       7.776       6.666       5.555       4.445       3.335       2.224       1.114      3.3313E-03
   9    9.997       8.887       7.776       6.666       5.555       4.445       3.335       2.224       1.114      3.3313E-03
  10    9.997       8.887       7.776       6.666       5.555       4.445       3.335       2.224       1.114      3.3313E-03
1
              HEAD IN LAYER   2 AT END OF TIME STEP  46 IN STRESS PERIOD    2
  ---------------------------------------------------------------------------

            1           2           3           4           5           6           7           8           9          10
 ........................................................................................................................
   1    9.997       8.887       7.776       6.666       5.555       4.445       3.335       2.224       1.114      3.3313E-03
   2    9.997       8.887       7.776       6.666       5.555       4.445       3.335       2.224       1.114      3.3313E-03
   3    9.997       8.887       7.776       6.666       5.555       4.445       3.335       2.224       1.114      3.3313E-03
   4    9.997       8.887       7.776       6.666       5.555       4.445       3.335       2.224       1.114      3.3313E-03
   5    9.997       8.887       7.776       6.666       5.555       4.445       3.335       2.224       1.114      3.3313E-03
   6    9.997       8.887       7.776       6.666       5.555       4.445       3.335       2.224       1.114      3.3313E-03
   7    9.997       8.887       7.776       6.666       5.555       4.445       3.335       2.224       1.114      3.3313E-03
   8    9.997       8.887       7.776       6.666       5.555       4.445       3.335       2.224       1.114      3.3313E-03
   9    9.997       8.887       7.776       6.666       5.555       4.445       3.335       2.224       1.114      3.3313E-03
  10    9.997       8.887       7.776       6.666       5.555       4.445       3.335       2.224       1.114      3.3313E-03
1
              HEAD IN LAYER   3 AT END OF TIME STEP  46 IN STRESS PERIOD    2
  ---------------------------------------------------------------------------

            1           2           3           4           5           6           7           8           9          10
 ........................................................................................................................
   1    9.997       8.887       7.776       6.666       5.555       4.445       3.335       2.224       1.114      3.3313E-03
   2    9.997       8.887       7.776       6.666       5.555       4.445       3.335       2.224       1.114      3.3313E-03
   3    9.997       8.887       7.776       6.666       5.555       4.445       3.335       2.224       1.114      3.3313E-03
   4    9.997       8.887       7.776       6.666       5.555       4.445       3.335       2.224       1.114      3.3313E-03
   5    9.997       8.887       7.776       6.666       5.555       4.445       3.335       2.224       1.114      3.3313E-03
   6    9.997       8.887       7.776       6.666       5.555       4.445       3.335       2.224       1.114      3.3313E-03
   7    9.997       8.887       7.776       6.666       5.555       4.445       3.335       2.224       1.114      3.3313E-03
   8    9.997       8.887       7.776       6.666       5.555       4.445       3.335       2.224       1.114      3.3313E-03
   9    9.997       8.887       7.776       6.666       5.555       4.445       3.335       2.224       1.114      3.3313E-03
  10    9.997       8.887       7.776       6.666       5.555       4.445       3.335       2.224       1.114      3.3313E-03
1
              HEAD IN LAYER   4 AT END OF TIME STEP  46 IN STRESS PERIOD    2
  ---------------------------------------------------------------------------

            1           2           3           4           5           6           7           8           9          10
 ........................................................................................................................
   1    9.997       8.887       7.776       6.666       5.555       4.445       3.335       2.224       1.114      3.3313E-03
   2    9.997       8.887       7.776       6.666       5.555       4.445       3.335       2.224       1.114      3.3313E-03
   3    9.997       8.887       7.776       6.666       5.555       4.445       3.335       2.224       1.114      3.3313E-03
   4    9.997       8.887       7.776       6.666       5.555       4.445       3.335       2.224       1.114      3.3313E-03
   5    9.997       8.887       7.776       6.666       5.555       4.445       3.335       2.224       1.114      3.3313E-03
   6    9.997       8.887       7.776       6.666       5.555       4.445       3.335       2.224       1.114      3.3313E-03
   7    9.997       8.887       7.776       6.666       5.555       4.445       3.335       2.224       1.114      3.3313E-03
   8    9.997       8.887       7.776       6.666       5.555       4.445       3.335       2.224       1.114      3.3313E-03
   9    9.997       8.887       7.776       6.666       5.555       4.445       3.335       2.224       1.114      3.3313E-03
  10    9.997       8.887       7.776       6.666       5.555       4.445       3.335       2.224       1.114      3.3313E-03

 HEAD WILL BE SAVED ON UNIT   51 AT END OF TIME STEP   46, STRESS PERIOD    2

 DRAWDOWN WILL BE SAVED ON UNIT   52 AT END OF TIME STEP   46, STRESS PERIOD    2
1
  VOLUMETRIC BUDGET FOR ENTIRE MODEL AT END OF TIME STEP   46, STRESS PERIOD   2
  ------------------------------------------------------------------------------

     CUMULATIVE VOLUMES      L**3       RATES FOR THIS TIME STEP      L**3/T
     ------------------                 ------------------------

           IN:                                      IN:
           ---                                      ---
             STORAGE =       1.0477E-08               STORAGE =           0.0000
       CONSTANT HEAD =           0.0000         CONSTANT HEAD =           0.0000
               WELLS =           0.0000                 WELLS =           0.0000
     HEAD DEP BOUNDS =       31316.6328       HEAD DEP BOUNDS =         666.3123

            TOTAL IN =       31316.6328              TOTAL IN =         666.3123

          OUT:                                     OUT:
          ----                                     ----
             STORAGE =       5.2387E-08               STORAGE =           0.0000
       CONSTANT HEAD =           0.0000         CONSTANT HEAD =           0.0000
               WELLS =           0.0000                 WELLS =           0.0000
     HEAD DEP BOUNDS =       31314.2070       HEAD DEP BOUNDS =         666.2595

           TOTAL OUT =       31314.2070             TOTAL OUT =         666.2595

            IN - OUT =           2.4258              IN - OUT =       5.2795E-02

 PERCENT DISCREPANCY =           0.01     PERCENT DISCREPANCY =           0.01






         TIME SUMMARY AT END OF TIME STEP   46 IN STRESS PERIOD    2
                    SECONDS     MINUTES      HOURS       DAYS        YEARS
                    -----------------------------------------------------------
   TIME STEP LENGTH  86400.      1440.0      24.000      1.0000     2.73785E-03
 STRESS PERIOD TIME 3.97440E+06  66240.      1104.0      46.000     0.12594    
         TOTAL TIME 4.06080E+06  67680.      1128.0      47.000     0.12868    
1
 
 SOLVING FOR HEAD 

 OUTPUT CONTROL FOR STRESS PERIOD    2   TIME STEP   47
    SAVE HEAD FOR ALL LAYERS
    SAVE DRAWDOWN FOR ALL LAYERS
    SAVE BUDGET
    PRINT HEAD FOR ALL LAYERS
    PRINT BUDGET
 UBDSV1 SAVING "         STORAGE" ON UNIT  53 AT TIME STEP 47, STRESS PERIOD   2
 UBDSV2 SAVING "   CONSTANT HEAD" ON UNIT  53 AT TIME STEP 47, STRESS PERIOD   2
 UBDSV1 SAVING "FLOW RIGHT FACE " ON UNIT  53 AT TIME STEP 47, STRESS PERIOD   2
 UBDSV1 SAVING "FLOW FRONT FACE " ON UNIT  53 AT TIME STEP 47, STRESS PERIOD   2
 UBDSV1 SAVING "FLOW LOWER FACE " ON UNIT  53 AT TIME STEP 47, STRESS PERIOD   2
1
              HEAD IN LAYER   1 AT END OF TIME STEP  47 IN STRESS PERIOD    2
  ---------------------------------------------------------------------------

            1           2           3           4           5           6           7           8           9          10
 ........................................................................................................................
   1    9.997       8.887       7.776       6.666       5.555       4.445       3.335       2.224       1.114      3.3313E-03
   2    9.997       8.887       7.776       6.666       5.555       4.445       3.335       2.224       1.114      3.3313E-03
   3    9.997       8.887       7.776       6.666       5.555       4.445       3.335       2.224       1.114      3.3313E-03
   4    9.997       8.887       7.776       6.666       5.555       4.445       3.335       2.224       1.114      3.3313E-03
   5    9.997       8.887       7.776       6.666       5.555       4.445       3.335       2.224       1.114      3.3313E-03
   6    9.997       8.887       7.776       6.666       5.555       4.445       3.335       2.224       1.114      3.3313E-03
   7    9.997       8.887       7.776       6.666       5.555       4.445       3.335       2.224       1.114      3.3313E-03
   8    9.997       8.887       7.776       6.666       5.555       4.445       3.335       2.224       1.114      3.3313E-03
   9    9.997       8.887       7.776       6.666       5.555       4.445       3.335       2.224       1.114      3.3313E-03
  10    9.997       8.887       7.776       6.666       5.555       4.445       3.335       2.224       1.114      3.3313E-03
1
              HEAD IN LAYER   2 AT END OF TIME STEP  47 IN STRESS PERIOD    2
  ---------------------------------------------------------------------------

            1           2           3           4           5           6           7           8           9          10
 ........................................................................................................................
   1    9.997       8.887       7.776       6.666       5.555       4.445       3.335       2.224       1.114      3.3313E-03
   2    9.997       8.887       7.776       6.666       5.555       4.445       3.335       2.224       1.114      3.3313E-03
   3    9.997       8.887       7.776       6.666       5.555       4.445       3.335       2.224       1.114      3.3313E-03
   4    9.997       8.887       7.776       6.666       5.555       4.445       3.335       2.224       1.114      3.3313E-03
   5    9.997       8.887       7.776       6.666       5.555       4.445       3.335       2.224       1.114      3.3313E-03
   6    9.997       8.887       7.776       6.666       5.555       4.445       3.335       2.224       1.114      3.3313E-03
   7    9.997       8.887       7.776       6.666       5.555       4.445       3.335       2.224       1.114      3.3313E-03
   8    9.997       8.887       7.776       6.666       5.555       4.445       3.335       2.224       1.114      3.3313E-03
   9    9.997       8.887       7.776       6.666       5.555       4.445       3.335       2.224       1.114      3.3313E-03
  10    9.997       8.887       7.776       6.666       5.555       4.445       3.335       2.224       1.114      3.3313E-03
1
              HEAD IN LAYER   3 AT END OF TIME STEP  47 IN STRESS PERIOD    2
  ---------------------------------------------------------------------------

            1           2           3           4           5           6           7           8           9          10
 ........................................................................................................................
   1    9.997       8.887       7.776       6.666       5.555       4.445       3.335       2.224       1.114      3.3313E-03
   2    9.997       8.887       7.776       6.666       5.555       4.445       3.335       2.224       1.114      3.3313E-03
   3    9.997       8.887       7.776       6.666       5.555       4.445       3.335       2.224       1.114      3.3313E-03
   4    9.997       8.887       7.776       6.666       5.555       4.445       3.335       2.224       1.114      3.3313E-03
   5    9.997       8.887       7.776       6.666       5.555       4.445       3.335       2.224       1.114      3.3313E-03
   6    9.997       8.887       7.776       6.666       5.555       4.445       3.335       2.224       1.114      3.3313E-03
   7    9.997       8.887       7.776       6.666       5.555       4.445       3.335       2.224       1.114      3.3313E-03
   8    9.997       8.887       7.776       6.666       5.555       4.445       3.335       2.224       1.114      3.3313E-03
   9    9.997       8.887       7.776       6.666       5.555       4.445       3.335       2.224       1.114      3.3313E-03
  10    9.997       8.887       7.776       6.666       5.555       4.445       3.335       2.224       1.114      3.3313E-03
1
              HEAD IN LAYER   4 AT END OF TIME STEP  47 IN STRESS PERIOD    2
  ---------------------------------------------------------------------------

            1           2           3           4           5           6           7           8           9          10
 ........................................................................................................................
   1    9.997       8.887       7.776       6.666       5.555       4.445       3.335       2.224       1.114      3.3313E-03
   2    9.997       8.887       7.776       6.666       5.555       4.445       3.335       2.224       1.114      3.3313E-03
   3    9.997       8.887       7.776       6.666       5.555       4.445       3.335       2.224       1.114      3.3313E-03
   4    9.997       8.887       7.776       6.666       5.555       4.445       3.335       2.224       1.114      3.3313E-03
   5    9.997       8.887       7.776       6.666       5.555       4.445       3.335       2.224       1.114      3.3313E-03
   6    9.997       8.887       7.776       6.666       5.555       4.445       3.335       2.224       1.114      3.3313E-03
   7    9.997       8.887       7.776       6.666       5.555       4.445       3.335       2.224       1.114      3.3313E-03
   8    9.997       8.887       7.776       6.666       5.555       4.445       3.335       2.224       1.114      3.3313E-03
   9    9.997       8.887       7.776       6.666       5.555       4.445       3.335       2.224       1.114      3.3313E-03
  10    9.997       8.887       7.776       6.666       5.555       4.445       3.335       2.224       1.114      3.3313E-03

 HEAD WILL BE SAVED ON UNIT   51 AT END OF TIME STEP   47, STRESS PERIOD    2

 DRAWDOWN WILL BE SAVED ON UNIT   52 AT END OF TIME STEP   47, STRESS PERIOD    2
1
  VOLUMETRIC BUDGET FOR ENTIRE MODEL AT END OF TIME STEP   47, STRESS PERIOD   2
  ------------------------------------------------------------------------------

     CUMULATIVE VOLUMES      L**3       RATES FOR THIS TIME STEP      L**3/T
     ------------------                 ------------------------

           IN:                                      IN:
           ---                                      ---
             STORAGE =       1.0477E-08               STORAGE =           0.0000
       CONSTANT HEAD =           0.0000         CONSTANT HEAD =           0.0000
               WELLS =           0.0000                 WELLS =           0.0000
     HEAD DEP BOUNDS =       31982.9453       HEAD DEP BOUNDS =         666.3123

            TOTAL IN =       31982.9453              TOTAL IN =         666.3123

          OUT:                                     OUT:
          ----                                     ----
             STORAGE =       5.2387E-08               STORAGE =           0.0000
       CONSTANT HEAD =           0.0000         CONSTANT HEAD =           0.0000
               WELLS =           0.0000                 WELLS =           0.0000
     HEAD DEP BOUNDS =       31980.4668       HEAD DEP BOUNDS =         666.2595

           TOTAL OUT =       31980.4668             TOTAL OUT =         666.2595

            IN - OUT =           2.4785              IN - OUT =       5.2795E-02

 PERCENT DISCREPANCY =           0.01     PERCENT DISCREPANCY =           0.01






         TIME SUMMARY AT END OF TIME STEP   47 IN STRESS PERIOD    2
                    SECONDS     MINUTES      HOURS       DAYS        YEARS
                    -----------------------------------------------------------
   TIME STEP LENGTH  86400.      1440.0      24.000      1.0000     2.73785E-03
 STRESS PERIOD TIME 4.06080E+06  67680.      1128.0      47.000     0.12868    
         TOTAL TIME 4.14720E+06  69120.      1152.0      48.000     0.13142    
1
 
 SOLVING FOR HEAD 

 OUTPUT CONTROL FOR STRESS PERIOD    2   TIME STEP   48
    SAVE HEAD FOR ALL LAYERS
    SAVE DRAWDOWN FOR ALL LAYERS
    SAVE BUDGET
    PRINT HEAD FOR ALL LAYERS
    PRINT BUDGET
 UBDSV1 SAVING "         STORAGE" ON UNIT  53 AT TIME STEP 48, STRESS PERIOD   2
 UBDSV2 SAVING "   CONSTANT HEAD" ON UNIT  53 AT TIME STEP 48, STRESS PERIOD   2
 UBDSV1 SAVING "FLOW RIGHT FACE " ON UNIT  53 AT TIME STEP 48, STRESS PERIOD   2
 UBDSV1 SAVING "FLOW FRONT FACE " ON UNIT  53 AT TIME STEP 48, STRESS PERIOD   2
 UBDSV1 SAVING "FLOW LOWER FACE " ON UNIT  53 AT TIME STEP 48, STRESS PERIOD   2
1
              HEAD IN LAYER   1 AT END OF TIME STEP  48 IN STRESS PERIOD    2
  ---------------------------------------------------------------------------

            1           2           3           4           5           6           7           8           9          10
 ........................................................................................................................
   1    9.997       8.887       7.776       6.666       5.555       4.445       3.335       2.224       1.114      3.3313E-03
   2    9.997       8.887       7.776       6.666       5.555       4.445       3.335       2.224       1.114      3.3313E-03
   3    9.997       8.887       7.776       6.666       5.555       4.445       3.335       2.224       1.114      3.3313E-03
   4    9.997       8.887       7.776       6.666       5.555       4.445       3.335       2.224       1.114      3.3313E-03
   5    9.997       8.887       7.776       6.666       5.555       4.445       3.335       2.224       1.114      3.3313E-03
   6    9.997       8.887       7.776       6.666       5.555       4.445       3.335       2.224       1.114      3.3313E-03
   7    9.997       8.887       7.776       6.666       5.555       4.445       3.335       2.224       1.114      3.3313E-03
   8    9.997       8.887       7.776       6.666       5.555       4.445       3.335       2.224       1.114      3.3313E-03
   9    9.997       8.887       7.776       6.666       5.555       4.445       3.335       2.224       1.114      3.3313E-03
  10    9.997       8.887       7.776       6.666       5.555       4.445       3.335       2.224       1.114      3.3313E-03
1
              HEAD IN LAYER   2 AT END OF TIME STEP  48 IN STRESS PERIOD    2
  ---------------------------------------------------------------------------

            1           2           3           4           5           6           7           8           9          10
 ........................................................................................................................
   1    9.997       8.887       7.776       6.666       5.555       4.445       3.335       2.224       1.114      3.3313E-03
   2    9.997       8.887       7.776       6.666       5.555       4.445       3.335       2.224       1.114      3.3313E-03
   3    9.997       8.887       7.776       6.666       5.555       4.445       3.335       2.224       1.114      3.3313E-03
   4    9.997       8.887       7.776       6.666       5.555       4.445       3.335       2.224       1.114      3.3313E-03
   5    9.997       8.887       7.776       6.666       5.555       4.445       3.335       2.224       1.114      3.3313E-03
   6    9.997       8.887       7.776       6.666       5.555       4.445       3.335       2.224       1.114      3.3313E-03
   7    9.997       8.887       7.776       6.666       5.555       4.445       3.335       2.224       1.114      3.3313E-03
   8    9.997       8.887       7.776       6.666       5.555       4.445       3.335       2.224       1.114      3.3313E-03
   9    9.997       8.887       7.776       6.666       5.555       4.445       3.335       2.224       1.114      3.3313E-03
  10    9.997       8.887       7.776       6.666       5.555       4.445       3.335       2.224       1.114      3.3313E-03
1
              HEAD IN LAYER   3 AT END OF TIME STEP  48 IN STRESS PERIOD    2
  ---------------------------------------------------------------------------

            1           2           3           4           5           6           7           8           9          10
 ........................................................................................................................
   1    9.997       8.887       7.776       6.666       5.555       4.445       3.335       2.224       1.114      3.3313E-03
   2    9.997       8.887       7.776       6.666       5.555       4.445       3.335       2.224       1.114      3.3313E-03
   3    9.997       8.887       7.776       6.666       5.555       4.445       3.335       2.224       1.114      3.3313E-03
   4    9.997       8.887       7.776       6.666       5.555       4.445       3.335       2.224       1.114      3.3313E-03
   5    9.997       8.887       7.776       6.666       5.555       4.445       3.335       2.224       1.114      3.3313E-03
   6    9.997       8.887       7.776       6.666       5.555       4.445       3.335       2.224       1.114      3.3313E-03
   7    9.997       8.887       7.776       6.666       5.555       4.445       3.335       2.224       1.114      3.3313E-03
   8    9.997       8.887       7.776       6.666       5.555       4.445       3.335       2.224       1.114      3.3313E-03
   9    9.997       8.887       7.776       6.666       5.555       4.445       3.335       2.224       1.114      3.3313E-03
  10    9.997       8.887       7.776       6.666       5.555       4.445       3.335       2.224       1.114      3.3313E-03
1
              HEAD IN LAYER   4 AT END OF TIME STEP  48 IN STRESS PERIOD    2
  ---------------------------------------------------------------------------

            1           2           3           4           5           6           7           8           9          10
 ........................................................................................................................
   1    9.997       8.887       7.776       6.666       5.555       4.445       3.335       2.224       1.114      3.3313E-03
   2    9.997       8.887       7.776       6.666       5.555       4.445       3.335       2.224       1.114      3.3313E-03
   3    9.997       8.887       7.776       6.666       5.555       4.445       3.335       2.224       1.114      3.3313E-03
   4    9.997       8.887       7.776       6.666       5.555       4.445       3.335       2.224       1.114      3.3313E-03
   5    9.997       8.887       7.776       6.666       5.555       4.445       3.335       2.224       1.114      3.3313E-03
   6    9.997       8.887       7.776       6.666       5.555       4.445       3.335       2.224       1.114      3.3313E-03
   7    9.997       8.887       7.776       6.666       5.555       4.445       3.335       2.224       1.114      3.3313E-03
   8    9.997       8.887       7.776       6.666       5.555       4.445       3.335       2.224       1.114      3.3313E-03
   9    9.997       8.887       7.776       6.666       5.555       4.445       3.335       2.224       1.114      3.3313E-03
  10    9.997       8.887       7.776       6.666       5.555       4.445       3.335       2.224       1.114      3.3313E-03

 HEAD WILL BE SAVED ON UNIT   51 AT END OF TIME STEP   48, STRESS PERIOD    2

 DRAWDOWN WILL BE SAVED ON UNIT   52 AT END OF TIME STEP   48, STRESS PERIOD    2
1
  VOLUMETRIC BUDGET FOR ENTIRE MODEL AT END OF TIME STEP   48, STRESS PERIOD   2
  ------------------------------------------------------------------------------

     CUMULATIVE VOLUMES      L**3       RATES FOR THIS TIME STEP      L**3/T
     ------------------                 ------------------------

           IN:                                      IN:
           ---                                      ---
             STORAGE =       1.0477E-08               STORAGE =           0.0000
       CONSTANT HEAD =           0.0000         CONSTANT HEAD =           0.0000
               WELLS =           0.0000                 WELLS =           0.0000
     HEAD DEP BOUNDS =       32649.2578       HEAD DEP BOUNDS =         666.3123

            TOTAL IN =       32649.2578              TOTAL IN =         666.3123

          OUT:                                     OUT:
          ----                                     ----
             STORAGE =       5.2387E-08               STORAGE =           0.0000
       CONSTANT HEAD =           0.0000         CONSTANT HEAD =           0.0000
               WELLS =           0.0000                 WELLS =           0.0000
     HEAD DEP BOUNDS =       32646.7266       HEAD DEP BOUNDS =         666.2595

           TOTAL OUT =       32646.7266             TOTAL OUT =         666.2595

            IN - OUT =           2.5312              IN - OUT =       5.2795E-02

 PERCENT DISCREPANCY =           0.01     PERCENT DISCREPANCY =           0.01






         TIME SUMMARY AT END OF TIME STEP   48 IN STRESS PERIOD    2
                    SECONDS     MINUTES      HOURS       DAYS        YEARS
                    -----------------------------------------------------------
   TIME STEP LENGTH  86400.      1440.0      24.000      1.0000     2.73785E-03
 STRESS PERIOD TIME 4.14720E+06  69120.      1152.0      48.000     0.13142    
         TOTAL TIME 4.23360E+06  70560.      1176.0      49.000     0.13415    
1
 
 SOLVING FOR HEAD 

 OUTPUT CONTROL FOR STRESS PERIOD    2   TIME STEP   49
    SAVE HEAD FOR ALL LAYERS
    SAVE DRAWDOWN FOR ALL LAYERS
    SAVE BUDGET
    PRINT HEAD FOR ALL LAYERS
    PRINT BUDGET
 UBDSV1 SAVING "         STORAGE" ON UNIT  53 AT TIME STEP 49, STRESS PERIOD   2
 UBDSV2 SAVING "   CONSTANT HEAD" ON UNIT  53 AT TIME STEP 49, STRESS PERIOD   2
 UBDSV1 SAVING "FLOW RIGHT FACE " ON UNIT  53 AT TIME STEP 49, STRESS PERIOD   2
 UBDSV1 SAVING "FLOW FRONT FACE " ON UNIT  53 AT TIME STEP 49, STRESS PERIOD   2
 UBDSV1 SAVING "FLOW LOWER FACE " ON UNIT  53 AT TIME STEP 49, STRESS PERIOD   2
1
              HEAD IN LAYER   1 AT END OF TIME STEP  49 IN STRESS PERIOD    2
  ---------------------------------------------------------------------------

            1           2           3           4           5           6           7           8           9          10
 ........................................................................................................................
   1    9.997       8.887       7.776       6.666       5.555       4.445       3.335       2.224       1.114      3.3313E-03
   2    9.997       8.887       7.776       6.666       5.555       4.445       3.335       2.224       1.114      3.3313E-03
   3    9.997       8.887       7.776       6.666       5.555       4.445       3.335       2.224       1.114      3.3313E-03
   4    9.997       8.887       7.776       6.666       5.555       4.445       3.335       2.224       1.114      3.3313E-03
   5    9.997       8.887       7.776       6.666       5.555       4.445       3.335       2.224       1.114      3.3313E-03
   6    9.997       8.887       7.776       6.666       5.555       4.445       3.335       2.224       1.114      3.3313E-03
   7    9.997       8.887       7.776       6.666       5.555       4.445       3.335       2.224       1.114      3.3313E-03
   8    9.997       8.887       7.776       6.666       5.555       4.445       3.335       2.224       1.114      3.3313E-03
   9    9.997       8.887       7.776       6.666       5.555       4.445       3.335       2.224       1.114      3.3313E-03
  10    9.997       8.887       7.776       6.666       5.555       4.445       3.335       2.224       1.114      3.3313E-03
1
              HEAD IN LAYER   2 AT END OF TIME STEP  49 IN STRESS PERIOD    2
  ---------------------------------------------------------------------------

            1           2           3           4           5           6           7           8           9          10
 ........................................................................................................................
   1    9.997       8.887       7.776       6.666       5.555       4.445       3.335       2.224       1.114      3.3313E-03
   2    9.997       8.887       7.776       6.666       5.555       4.445       3.335       2.224       1.114      3.3313E-03
   3    9.997       8.887       7.776       6.666       5.555       4.445       3.335       2.224       1.114      3.3313E-03
   4    9.997       8.887       7.776       6.666       5.555       4.445       3.335       2.224       1.114      3.3313E-03
   5    9.997       8.887       7.776       6.666       5.555       4.445       3.335       2.224       1.114      3.3313E-03
   6    9.997       8.887       7.776       6.666       5.555       4.445       3.335       2.224       1.114      3.3313E-03
   7    9.997       8.887       7.776       6.666       5.555       4.445       3.335       2.224       1.114      3.3313E-03
   8    9.997       8.887       7.776       6.666       5.555       4.445       3.335       2.224       1.114      3.3313E-03
   9    9.997       8.887       7.776       6.666       5.555       4.445       3.335       2.224       1.114      3.3313E-03
  10    9.997       8.887       7.776       6.666       5.555       4.445       3.335       2.224       1.114      3.3313E-03
1
              HEAD IN LAYER   3 AT END OF TIME STEP  49 IN STRESS PERIOD    2
  ---------------------------------------------------------------------------

            1           2           3           4           5           6           7           8           9          10
 ........................................................................................................................
   1    9.997       8.887       7.776       6.666       5.555       4.445       3.335       2.224       1.114      3.3313E-03
   2    9.997       8.887       7.776       6.666       5.555       4.445       3.335       2.224       1.114      3.3313E-03
   3    9.997       8.887       7.776       6.666       5.555       4.445       3.335       2.224       1.114      3.3313E-03
   4    9.997       8.887       7.776       6.666       5.555       4.445       3.335       2.224       1.114      3.3313E-03
   5    9.997       8.887       7.776       6.666       5.555       4.445       3.335       2.224       1.114      3.3313E-03
   6    9.997       8.887       7.776       6.666       5.555       4.445       3.335       2.224       1.114      3.3313E-03
   7    9.997       8.887       7.776       6.666       5.555       4.445       3.335       2.224       1.114      3.3313E-03
   8    9.997       8.887       7.776       6.666       5.555       4.445       3.335       2.224       1.114      3.3313E-03
   9    9.997       8.887       7.776       6.666       5.555       4.445       3.335       2.224       1.114      3.3313E-03
  10    9.997       8.887       7.776       6.666       5.555       4.445       3.335       2.224       1.114      3.3313E-03
1
              HEAD IN LAYER   4 AT END OF TIME STEP  49 IN STRESS PERIOD    2
  ---------------------------------------------------------------------------

            1           2           3           4           5           6           7           8           9          10
 ........................................................................................................................
   1    9.997       8.887       7.776       6.666       5.555       4.445       3.335       2.224       1.114      3.3313E-03
   2    9.997       8.887       7.776       6.666       5.555       4.445       3.335       2.224       1.114      3.3313E-03
   3    9.997       8.887       7.776       6.666       5.555       4.445       3.335       2.224       1.114      3.3313E-03
   4    9.997       8.887       7.776       6.666       5.555       4.445       3.335       2.224       1.114      3.3313E-03
   5    9.997       8.887       7.776       6.666       5.555       4.445       3.335       2.224       1.114      3.3313E-03
   6    9.997       8.887       7.776       6.666       5.555       4.445       3.335       2.224       1.114      3.3313E-03
   7    9.997       8.887       7.776       6.666       5.555       4.445       3.335       2.224       1.114      3.3313E-03
   8    9.997       8.887       7.776       6.666       5.555       4.445       3.335       2.224       1.114      3.3313E-03
   9    9.997       8.887       7.776       6.666       5.555       4.445       3.335       2.224       1.114      3.3313E-03
  10    9.997       8.887       7.776       6.666       5.555       4.445       3.335       2.224       1.114      3.3313E-03

 HEAD WILL BE SAVED ON UNIT   51 AT END OF TIME STEP   49, STRESS PERIOD    2

 DRAWDOWN WILL BE SAVED ON UNIT   52 AT END OF TIME STEP   49, STRESS PERIOD    2
1
  VOLUMETRIC BUDGET FOR ENTIRE MODEL AT END OF TIME STEP   49, STRESS PERIOD   2
  ------------------------------------------------------------------------------

     CUMULATIVE VOLUMES      L**3       RATES FOR THIS TIME STEP      L**3/T
     ------------------                 ------------------------

           IN:                                      IN:
           ---                                      ---
             STORAGE =       1.0477E-08               STORAGE =           0.0000
       CONSTANT HEAD =           0.0000         CONSTANT HEAD =           0.0000
               WELLS =           0.0000                 WELLS =           0.0000
     HEAD DEP BOUNDS =       33315.5703       HEAD DEP BOUNDS =         666.3123

            TOTAL IN =       33315.5703              TOTAL IN =         666.3123

          OUT:                                     OUT:
          ----                                     ----
             STORAGE =       5.2387E-08               STORAGE =           0.0000
       CONSTANT HEAD =           0.0000         CONSTANT HEAD =           0.0000
               WELLS =           0.0000                 WELLS =           0.0000
     HEAD DEP BOUNDS =       33312.9844       HEAD DEP BOUNDS =         666.2595

           TOTAL OUT =       33312.9844             TOTAL OUT =         666.2595

            IN - OUT =           2.5859              IN - OUT =       5.2795E-02

 PERCENT DISCREPANCY =           0.01     PERCENT DISCREPANCY =           0.01






         TIME SUMMARY AT END OF TIME STEP   49 IN STRESS PERIOD    2
                    SECONDS     MINUTES      HOURS       DAYS        YEARS
                    -----------------------------------------------------------
   TIME STEP LENGTH  86400.      1440.0      24.000      1.0000     2.73785E-03
 STRESS PERIOD TIME 4.23360E+06  70560.      1176.0      49.000     0.13415    
         TOTAL TIME 4.32000E+06  72000.      1200.0      50.000     0.13689    
1
 
 SOLVING FOR HEAD 

 OUTPUT CONTROL FOR STRESS PERIOD    2   TIME STEP   50
    SAVE HEAD FOR ALL LAYERS
    SAVE DRAWDOWN FOR ALL LAYERS
    SAVE BUDGET
    PRINT HEAD FOR ALL LAYERS
    PRINT BUDGET
 UBDSV1 SAVING "         STORAGE" ON UNIT  53 AT TIME STEP 50, STRESS PERIOD   2
 UBDSV2 SAVING "   CONSTANT HEAD" ON UNIT  53 AT TIME STEP 50, STRESS PERIOD   2
 UBDSV1 SAVING "FLOW RIGHT FACE " ON UNIT  53 AT TIME STEP 50, STRESS PERIOD   2
 UBDSV1 SAVING "FLOW FRONT FACE " ON UNIT  53 AT TIME STEP 50, STRESS PERIOD   2
 UBDSV1 SAVING "FLOW LOWER FACE " ON UNIT  53 AT TIME STEP 50, STRESS PERIOD   2
1
              HEAD IN LAYER   1 AT END OF TIME STEP  50 IN STRESS PERIOD    2
  ---------------------------------------------------------------------------

            1           2           3           4           5           6           7           8           9          10
 ........................................................................................................................
   1    9.997       8.887       7.776       6.666       5.555       4.445       3.335       2.224       1.114      3.3313E-03
   2    9.997       8.887       7.776       6.666       5.555       4.445       3.335       2.224       1.114      3.3313E-03
   3    9.997       8.887       7.776       6.666       5.555       4.445       3.335       2.224       1.114      3.3313E-03
   4    9.997       8.887       7.776       6.666       5.555       4.445       3.335       2.224       1.114      3.3313E-03
   5    9.997       8.887       7.776       6.666       5.555       4.445       3.335       2.224       1.114      3.3313E-03
   6    9.997       8.887       7.776       6.666       5.555       4.445       3.335       2.224       1.114      3.3313E-03
   7    9.997       8.887       7.776       6.666       5.555       4.445       3.335       2.224       1.114      3.3313E-03
   8    9.997       8.887       7.776       6.666       5.555       4.445       3.335       2.224       1.114      3.3313E-03
   9    9.997       8.887       7.776       6.666       5.555       4.445       3.335       2.224       1.114      3.3313E-03
  10    9.997       8.887       7.776       6.666       5.555       4.445       3.335       2.224       1.114      3.3313E-03
1
              HEAD IN LAYER   2 AT END OF TIME STEP  50 IN STRESS PERIOD    2
  ---------------------------------------------------------------------------

            1           2           3           4           5           6           7           8           9          10
 ........................................................................................................................
   1    9.997       8.887       7.776       6.666       5.555       4.445       3.335       2.224       1.114      3.3313E-03
   2    9.997       8.887       7.776       6.666       5.555       4.445       3.335       2.224       1.114      3.3313E-03
   3    9.997       8.887       7.776       6.666       5.555       4.445       3.335       2.224       1.114      3.3313E-03
   4    9.997       8.887       7.776       6.666       5.555       4.445       3.335       2.224       1.114      3.3313E-03
   5    9.997       8.887       7.776       6.666       5.555       4.445       3.335       2.224       1.114      3.3313E-03
   6    9.997       8.887       7.776       6.666       5.555       4.445       3.335       2.224       1.114      3.3313E-03
   7    9.997       8.887       7.776       6.666       5.555       4.445       3.335       2.224       1.114      3.3313E-03
   8    9.997       8.887       7.776       6.666       5.555       4.445       3.335       2.224       1.114      3.3313E-03
   9    9.997       8.887       7.776       6.666       5.555       4.445       3.335       2.224       1.114      3.3313E-03
  10    9.997       8.887       7.776       6.666       5.555       4.445       3.335       2.224       1.114      3.3313E-03
1
              HEAD IN LAYER   3 AT END OF TIME STEP  50 IN STRESS PERIOD    2
  ---------------------------------------------------------------------------

            1           2           3           4           5           6           7           8           9          10
 ........................................................................................................................
   1    9.997       8.887       7.776       6.666       5.555       4.445       3.335       2.224       1.114      3.3313E-03
   2    9.997       8.887       7.776       6.666       5.555       4.445       3.335       2.224       1.114      3.3313E-03
   3    9.997       8.887       7.776       6.666       5.555       4.445       3.335       2.224       1.114      3.3313E-03
   4    9.997       8.887       7.776       6.666       5.555       4.445       3.335       2.224       1.114      3.3313E-03
   5    9.997       8.887       7.776       6.666       5.555       4.445       3.335       2.224       1.114      3.3313E-03
   6    9.997       8.887       7.776       6.666       5.555       4.445       3.335       2.224       1.114      3.3313E-03
   7    9.997       8.887       7.776       6.666       5.555       4.445       3.335       2.224       1.114      3.3313E-03
   8    9.997       8.887       7.776       6.666       5.555       4.445       3.335       2.224       1.114      3.3313E-03
   9    9.997       8.887       7.776       6.666       5.555       4.445       3.335       2.224       1.114      3.3313E-03
  10    9.997       8.887       7.776       6.666       5.555       4.445       3.335       2.224       1.114      3.3313E-03
1
              HEAD IN LAYER   4 AT END OF TIME STEP  50 IN STRESS PERIOD    2
  ---------------------------------------------------------------------------

            1           2           3           4           5           6           7           8           9          10
 ........................................................................................................................
   1    9.997       8.887       7.776       6.666       5.555       4.445       3.335       2.224       1.114      3.3313E-03
   2    9.997       8.887       7.776       6.666       5.555       4.445       3.335       2.224       1.114      3.3313E-03
   3    9.997       8.887       7.776       6.666       5.555       4.445       3.335       2.224       1.114      3.3313E-03
   4    9.997       8.887       7.776       6.666       5.555       4.445       3.335       2.224       1.114      3.3313E-03
   5    9.997       8.887       7.776       6.666       5.555       4.445       3.335       2.224       1.114      3.3313E-03
   6    9.997       8.887       7.776       6.666       5.555       4.445       3.335       2.224       1.114      3.3313E-03
   7    9.997       8.887       7.776       6.666       5.555       4.445       3.335       2.224       1.114      3.3313E-03
   8    9.997       8.887       7.776       6.666       5.555       4.445       3.335       2.224       1.114      3.3313E-03
   9    9.997       8.887       7.776       6.666       5.555       4.445       3.335       2.224       1.114      3.3313E-03
  10    9.997       8.887       7.776       6.666       5.555       4.445       3.335       2.224       1.114      3.3313E-03

 HEAD WILL BE SAVED ON UNIT   51 AT END OF TIME STEP   50, STRESS PERIOD    2

 DRAWDOWN WILL BE SAVED ON UNIT   52 AT END OF TIME STEP   50, STRESS PERIOD    2
1
  VOLUMETRIC BUDGET FOR ENTIRE MODEL AT END OF TIME STEP   50, STRESS PERIOD   2
  ------------------------------------------------------------------------------

     CUMULATIVE VOLUMES      L**3       RATES FOR THIS TIME STEP      L**3/T
     ------------------                 ------------------------

           IN:                                      IN:
           ---                                      ---
             STORAGE =       1.0477E-08               STORAGE =           0.0000
       CONSTANT HEAD =           0.0000         CONSTANT HEAD =           0.0000
               WELLS =           0.0000                 WELLS =           0.0000
     HEAD DEP BOUNDS =       33981.8828       HEAD DEP BOUNDS =         666.3123

            TOTAL IN =       33981.8828              TOTAL IN =         666.3123

          OUT:                                     OUT:
          ----                                     ----
             STORAGE =       5.2387E-08               STORAGE =           0.0000
       CONSTANT HEAD =           0.0000         CONSTANT HEAD =           0.0000
               WELLS =           0.0000                 WELLS =           0.0000
     HEAD DEP BOUNDS =       33979.2422       HEAD DEP BOUNDS =         666.2595

           TOTAL OUT =       33979.2422             TOTAL OUT =         666.2595

            IN - OUT =           2.6406              IN - OUT =       5.2795E-02

 PERCENT DISCREPANCY =           0.01     PERCENT DISCREPANCY =           0.01






         TIME SUMMARY AT END OF TIME STEP   50 IN STRESS PERIOD    2
                    SECONDS     MINUTES      HOURS       DAYS        YEARS
                    -----------------------------------------------------------
   TIME STEP LENGTH  86400.      1440.0      24.000      1.0000     2.73785E-03
 STRESS PERIOD TIME 4.32000E+06  72000.      1200.0      50.000     0.13689    
         TOTAL TIME 4.40640E+06  73440.      1224.0      51.000     0.13963    
1
 
 SOLVING FOR HEAD 

 OUTPUT CONTROL FOR STRESS PERIOD    2   TIME STEP   51
    SAVE HEAD FOR ALL LAYERS
    SAVE DRAWDOWN FOR ALL LAYERS
    SAVE BUDGET
    PRINT HEAD FOR ALL LAYERS
    PRINT BUDGET
 UBDSV1 SAVING "         STORAGE" ON UNIT  53 AT TIME STEP 51, STRESS PERIOD   2
 UBDSV2 SAVING "   CONSTANT HEAD" ON UNIT  53 AT TIME STEP 51, STRESS PERIOD   2
 UBDSV1 SAVING "FLOW RIGHT FACE " ON UNIT  53 AT TIME STEP 51, STRESS PERIOD   2
 UBDSV1 SAVING "FLOW FRONT FACE " ON UNIT  53 AT TIME STEP 51, STRESS PERIOD   2
 UBDSV1 SAVING "FLOW LOWER FACE " ON UNIT  53 AT TIME STEP 51, STRESS PERIOD   2
1
              HEAD IN LAYER   1 AT END OF TIME STEP  51 IN STRESS PERIOD    2
  ---------------------------------------------------------------------------

            1           2           3           4           5           6           7           8           9          10
 ........................................................................................................................
   1    9.997       8.887       7.776       6.666       5.555       4.445       3.335       2.224       1.114      3.3313E-03
   2    9.997       8.887       7.776       6.666       5.555       4.445       3.335       2.224       1.114      3.3313E-03
   3    9.997       8.887       7.776       6.666       5.555       4.445       3.335       2.224       1.114      3.3313E-03
   4    9.997       8.887       7.776       6.666       5.555       4.445       3.335       2.224       1.114      3.3313E-03
   5    9.997       8.887       7.776       6.666       5.555       4.445       3.335       2.224       1.114      3.3313E-03
   6    9.997       8.887       7.776       6.666       5.555       4.445       3.335       2.224       1.114      3.3313E-03
   7    9.997       8.887       7.776       6.666       5.555       4.445       3.335       2.224       1.114      3.3313E-03
   8    9.997       8.887       7.776       6.666       5.555       4.445       3.335       2.224       1.114      3.3313E-03
   9    9.997       8.887       7.776       6.666       5.555       4.445       3.335       2.224       1.114      3.3313E-03
  10    9.997       8.887       7.776       6.666       5.555       4.445       3.335       2.224       1.114      3.3313E-03
1
              HEAD IN LAYER   2 AT END OF TIME STEP  51 IN STRESS PERIOD    2
  ---------------------------------------------------------------------------

            1           2           3           4           5           6           7           8           9          10
 ........................................................................................................................
   1    9.997       8.887       7.776       6.666       5.555       4.445       3.335       2.224       1.114      3.3313E-03
   2    9.997       8.887       7.776       6.666       5.555       4.445       3.335       2.224       1.114      3.3313E-03
   3    9.997       8.887       7.776       6.666       5.555       4.445       3.335       2.224       1.114      3.3313E-03
   4    9.997       8.887       7.776       6.666       5.555       4.445       3.335       2.224       1.114      3.3313E-03
   5    9.997       8.887       7.776       6.666       5.555       4.445       3.335       2.224       1.114      3.3313E-03
   6    9.997       8.887       7.776       6.666       5.555       4.445       3.335       2.224       1.114      3.3313E-03
   7    9.997       8.887       7.776       6.666       5.555       4.445       3.335       2.224       1.114      3.3313E-03
   8    9.997       8.887       7.776       6.666       5.555       4.445       3.335       2.224       1.114      3.3313E-03
   9    9.997       8.887       7.776       6.666       5.555       4.445       3.335       2.224       1.114      3.3313E-03
  10    9.997       8.887       7.776       6.666       5.555       4.445       3.335       2.224       1.114      3.3313E-03
1
              HEAD IN LAYER   3 AT END OF TIME STEP  51 IN STRESS PERIOD    2
  ---------------------------------------------------------------------------

            1           2           3           4           5           6           7           8           9          10
 ........................................................................................................................
   1    9.997       8.887       7.776       6.666       5.555       4.445       3.335       2.224       1.114      3.3313E-03
   2    9.997       8.887       7.776       6.666       5.555       4.445       3.335       2.224       1.114      3.3313E-03
   3    9.997       8.887       7.776       6.666       5.555       4.445       3.335       2.224       1.114      3.3313E-03
   4    9.997       8.887       7.776       6.666       5.555       4.445       3.335       2.224       1.114      3.3313E-03
   5    9.997       8.887       7.776       6.666       5.555       4.445       3.335       2.224       1.114      3.3313E-03
   6    9.997       8.887       7.776       6.666       5.555       4.445       3.335       2.224       1.114      3.3313E-03
   7    9.997       8.887       7.776       6.666       5.555       4.445       3.335       2.224       1.114      3.3313E-03
   8    9.997       8.887       7.776       6.666       5.555       4.445       3.335       2.224       1.114      3.3313E-03
   9    9.997       8.887       7.776       6.666       5.555       4.445       3.335       2.224       1.114      3.3313E-03
  10    9.997       8.887       7.776       6.666       5.555       4.445       3.335       2.224       1.114      3.3313E-03
1
              HEAD IN LAYER   4 AT END OF TIME STEP  51 IN STRESS PERIOD    2
  ---------------------------------------------------------------------------

            1           2           3           4           5           6           7           8           9          10
 ........................................................................................................................
   1    9.997       8.887       7.776       6.666       5.555       4.445       3.335       2.224       1.114      3.3313E-03
   2    9.997       8.887       7.776       6.666       5.555       4.445       3.335       2.224       1.114      3.3313E-03
   3    9.997       8.887       7.776       6.666       5.555       4.445       3.335       2.224       1.114      3.3313E-03
   4    9.997       8.887       7.776       6.666       5.555       4.445       3.335       2.224       1.114      3.3313E-03
   5    9.997       8.887       7.776       6.666       5.555       4.445       3.335       2.224       1.114      3.3313E-03
   6    9.997       8.887       7.776       6.666       5.555       4.445       3.335       2.224       1.114      3.3313E-03
   7    9.997       8.887       7.776       6.666       5.555       4.445       3.335       2.224       1.114      3.3313E-03
   8    9.997       8.887       7.776       6.666       5.555       4.445       3.335       2.224       1.114      3.3313E-03
   9    9.997       8.887       7.776       6.666       5.555       4.445       3.335       2.224       1.114      3.3313E-03
  10    9.997       8.887       7.776       6.666       5.555       4.445       3.335       2.224       1.114      3.3313E-03

 HEAD WILL BE SAVED ON UNIT   51 AT END OF TIME STEP   51, STRESS PERIOD    2

 DRAWDOWN WILL BE SAVED ON UNIT   52 AT END OF TIME STEP   51, STRESS PERIOD    2
1
  VOLUMETRIC BUDGET FOR ENTIRE MODEL AT END OF TIME STEP   51, STRESS PERIOD   2
  ------------------------------------------------------------------------------

     CUMULATIVE VOLUMES      L**3       RATES FOR THIS TIME STEP      L**3/T
     ------------------                 ------------------------

           IN:                                      IN:
           ---                                      ---
             STORAGE =       1.0477E-08               STORAGE =           0.0000
       CONSTANT HEAD =           0.0000         CONSTANT HEAD =           0.0000
               WELLS =           0.0000                 WELLS =           0.0000
     HEAD DEP BOUNDS =       34648.1953       HEAD DEP BOUNDS =         666.3123

            TOTAL IN =       34648.1953              TOTAL IN =         666.3123

          OUT:                                     OUT:
          ----                                     ----
             STORAGE =       5.2387E-08               STORAGE =           0.0000
       CONSTANT HEAD =           0.0000         CONSTANT HEAD =           0.0000
               WELLS =           0.0000                 WELLS =           0.0000
     HEAD DEP BOUNDS =       34645.5000       HEAD DEP BOUNDS =         666.2595

           TOTAL OUT =       34645.5000             TOTAL OUT =         666.2595

            IN - OUT =           2.6953              IN - OUT =       5.2795E-02

 PERCENT DISCREPANCY =           0.01     PERCENT DISCREPANCY =           0.01






         TIME SUMMARY AT END OF TIME STEP   51 IN STRESS PERIOD    2
                    SECONDS     MINUTES      HOURS       DAYS        YEARS
                    -----------------------------------------------------------
   TIME STEP LENGTH  86400.      1440.0      24.000      1.0000     2.73785E-03
 STRESS PERIOD TIME 4.40640E+06  73440.      1224.0      51.000     0.13963    
         TOTAL TIME 4.49280E+06  74880.      1248.0      52.000     0.14237    
1
 
 SOLVING FOR HEAD 

 OUTPUT CONTROL FOR STRESS PERIOD    2   TIME STEP   52
    SAVE HEAD FOR ALL LAYERS
    SAVE DRAWDOWN FOR ALL LAYERS
    SAVE BUDGET
    PRINT HEAD FOR ALL LAYERS
    PRINT BUDGET
 UBDSV1 SAVING "         STORAGE" ON UNIT  53 AT TIME STEP 52, STRESS PERIOD   2
 UBDSV2 SAVING "   CONSTANT HEAD" ON UNIT  53 AT TIME STEP 52, STRESS PERIOD   2
 UBDSV1 SAVING "FLOW RIGHT FACE " ON UNIT  53 AT TIME STEP 52, STRESS PERIOD   2
 UBDSV1 SAVING "FLOW FRONT FACE " ON UNIT  53 AT TIME STEP 52, STRESS PERIOD   2
 UBDSV1 SAVING "FLOW LOWER FACE " ON UNIT  53 AT TIME STEP 52, STRESS PERIOD   2
1
              HEAD IN LAYER   1 AT END OF TIME STEP  52 IN STRESS PERIOD    2
  ---------------------------------------------------------------------------

            1           2           3           4           5           6           7           8           9          10
 ........................................................................................................................
   1    9.997       8.887       7.776       6.666       5.555       4.445       3.335       2.224       1.114      3.3313E-03
   2    9.997       8.887       7.776       6.666       5.555       4.445       3.335       2.224       1.114      3.3313E-03
   3    9.997       8.887       7.776       6.666       5.555       4.445       3.335       2.224       1.114      3.3313E-03
   4    9.997       8.887       7.776       6.666       5.555       4.445       3.335       2.224       1.114      3.3313E-03
   5    9.997       8.887       7.776       6.666       5.555       4.445       3.335       2.224       1.114      3.3313E-03
   6    9.997       8.887       7.776       6.666       5.555       4.445       3.335       2.224       1.114      3.3313E-03
   7    9.997       8.887       7.776       6.666       5.555       4.445       3.335       2.224       1.114      3.3313E-03
   8    9.997       8.887       7.776       6.666       5.555       4.445       3.335       2.224       1.114      3.3313E-03
   9    9.997       8.887       7.776       6.666       5.555       4.445       3.335       2.224       1.114      3.3313E-03
  10    9.997       8.887       7.776       6.666       5.555       4.445       3.335       2.224       1.114      3.3313E-03
1
              HEAD IN LAYER   2 AT END OF TIME STEP  52 IN STRESS PERIOD    2
  ---------------------------------------------------------------------------

            1           2           3           4           5           6           7           8           9          10
 ........................................................................................................................
   1    9.997       8.887       7.776       6.666       5.555       4.445       3.335       2.224       1.114      3.3313E-03
   2    9.997       8.887       7.776       6.666       5.555       4.445       3.335       2.224       1.114      3.3313E-03
   3    9.997       8.887       7.776       6.666       5.555       4.445       3.335       2.224       1.114      3.3313E-03
   4    9.997       8.887       7.776       6.666       5.555       4.445       3.335       2.224       1.114      3.3313E-03
   5    9.997       8.887       7.776       6.666       5.555       4.445       3.335       2.224       1.114      3.3313E-03
   6    9.997       8.887       7.776       6.666       5.555       4.445       3.335       2.224       1.114      3.3313E-03
   7    9.997       8.887       7.776       6.666       5.555       4.445       3.335       2.224       1.114      3.3313E-03
   8    9.997       8.887       7.776       6.666       5.555       4.445       3.335       2.224       1.114      3.3313E-03
   9    9.997       8.887       7.776       6.666       5.555       4.445       3.335       2.224       1.114      3.3313E-03
  10    9.997       8.887       7.776       6.666       5.555       4.445       3.335       2.224       1.114      3.3313E-03
1
              HEAD IN LAYER   3 AT END OF TIME STEP  52 IN STRESS PERIOD    2
  ---------------------------------------------------------------------------

            1           2           3           4           5           6           7           8           9          10
 ........................................................................................................................
   1    9.997       8.887       7.776       6.666       5.555       4.445       3.335       2.224       1.114      3.3313E-03
   2    9.997       8.887       7.776       6.666       5.555       4.445       3.335       2.224       1.114      3.3313E-03
   3    9.997       8.887       7.776       6.666       5.555       4.445       3.335       2.224       1.114      3.3313E-03
   4    9.997       8.887       7.776       6.666       5.555       4.445       3.335       2.224       1.114      3.3313E-03
   5    9.997       8.887       7.776       6.666       5.555       4.445       3.335       2.224       1.114      3.3313E-03
   6    9.997       8.887       7.776       6.666       5.555       4.445       3.335       2.224       1.114      3.3313E-03
   7    9.997       8.887       7.776       6.666       5.555       4.445       3.335       2.224       1.114      3.3313E-03
   8    9.997       8.887       7.776       6.666       5.555       4.445       3.335       2.224       1.114      3.3313E-03
   9    9.997       8.887       7.776       6.666       5.555       4.445       3.335       2.224       1.114      3.3313E-03
  10    9.997       8.887       7.776       6.666       5.555       4.445       3.335       2.224       1.114      3.3313E-03
1
              HEAD IN LAYER   4 AT END OF TIME STEP  52 IN STRESS PERIOD    2
  ---------------------------------------------------------------------------

            1           2           3           4           5           6           7           8           9          10
 ........................................................................................................................
   1    9.997       8.887       7.776       6.666       5.555       4.445       3.335       2.224       1.114      3.3313E-03
   2    9.997       8.887       7.776       6.666       5.555       4.445       3.335       2.224       1.114      3.3313E-03
   3    9.997       8.887       7.776       6.666       5.555       4.445       3.335       2.224       1.114      3.3313E-03
   4    9.997       8.887       7.776       6.666       5.555       4.445       3.335       2.224       1.114      3.3313E-03
   5    9.997       8.887       7.776       6.666       5.555       4.445       3.335       2.224       1.114      3.3313E-03
   6    9.997       8.887       7.776       6.666       5.555       4.445       3.335       2.224       1.114      3.3313E-03
   7    9.997       8.887       7.776       6.666       5.555       4.445       3.335       2.224       1.114      3.3313E-03
   8    9.997       8.887       7.776       6.666       5.555       4.445       3.335       2.224       1.114      3.3313E-03
   9    9.997       8.887       7.776       6.666       5.555       4.445       3.335       2.224       1.114      3.3313E-03
  10    9.997       8.887       7.776       6.666       5.555       4.445       3.335       2.224       1.114      3.3313E-03

 HEAD WILL BE SAVED ON UNIT   51 AT END OF TIME STEP   52, STRESS PERIOD    2

 DRAWDOWN WILL BE SAVED ON UNIT   52 AT END OF TIME STEP   52, STRESS PERIOD    2
1
  VOLUMETRIC BUDGET FOR ENTIRE MODEL AT END OF TIME STEP   52, STRESS PERIOD   2
  ------------------------------------------------------------------------------

     CUMULATIVE VOLUMES      L**3       RATES FOR THIS TIME STEP      L**3/T
     ------------------                 ------------------------

           IN:                                      IN:
           ---                                      ---
             STORAGE =       1.0477E-08               STORAGE =           0.0000
       CONSTANT HEAD =           0.0000         CONSTANT HEAD =           0.0000
               WELLS =           0.0000                 WELLS =           0.0000
     HEAD DEP BOUNDS =       35314.5078       HEAD DEP BOUNDS =         666.3123

            TOTAL IN =       35314.5078              TOTAL IN =         666.3123

          OUT:                                     OUT:
          ----                                     ----
             STORAGE =       5.2387E-08               STORAGE =           0.0000
       CONSTANT HEAD =           0.0000         CONSTANT HEAD =           0.0000
               WELLS =           0.0000                 WELLS =           0.0000
     HEAD DEP BOUNDS =       35311.7578       HEAD DEP BOUNDS =         666.2595

           TOTAL OUT =       35311.7578             TOTAL OUT =         666.2595

            IN - OUT =           2.7500              IN - OUT =       5.2795E-02

 PERCENT DISCREPANCY =           0.01     PERCENT DISCREPANCY =           0.01






         TIME SUMMARY AT END OF TIME STEP   52 IN STRESS PERIOD    2
                    SECONDS     MINUTES      HOURS       DAYS        YEARS
                    -----------------------------------------------------------
   TIME STEP LENGTH  86400.      1440.0      24.000      1.0000     2.73785E-03
 STRESS PERIOD TIME 4.49280E+06  74880.      1248.0      52.000     0.14237    
         TOTAL TIME 4.57920E+06  76320.      1272.0      53.000     0.14511    
1
 
 SOLVING FOR HEAD 

 OUTPUT CONTROL FOR STRESS PERIOD    2   TIME STEP   53
    SAVE HEAD FOR ALL LAYERS
    SAVE DRAWDOWN FOR ALL LAYERS
    SAVE BUDGET
    PRINT HEAD FOR ALL LAYERS
    PRINT BUDGET
 UBDSV1 SAVING "         STORAGE" ON UNIT  53 AT TIME STEP 53, STRESS PERIOD   2
 UBDSV2 SAVING "   CONSTANT HEAD" ON UNIT  53 AT TIME STEP 53, STRESS PERIOD   2
 UBDSV1 SAVING "FLOW RIGHT FACE " ON UNIT  53 AT TIME STEP 53, STRESS PERIOD   2
 UBDSV1 SAVING "FLOW FRONT FACE " ON UNIT  53 AT TIME STEP 53, STRESS PERIOD   2
 UBDSV1 SAVING "FLOW LOWER FACE " ON UNIT  53 AT TIME STEP 53, STRESS PERIOD   2
1
              HEAD IN LAYER   1 AT END OF TIME STEP  53 IN STRESS PERIOD    2
  ---------------------------------------------------------------------------

            1           2           3           4           5           6           7           8           9          10
 ........................................................................................................................
   1    9.997       8.887       7.776       6.666       5.555       4.445       3.335       2.224       1.114      3.3313E-03
   2    9.997       8.887       7.776       6.666       5.555       4.445       3.335       2.224       1.114      3.3313E-03
   3    9.997       8.887       7.776       6.666       5.555       4.445       3.335       2.224       1.114      3.3313E-03
   4    9.997       8.887       7.776       6.666       5.555       4.445       3.335       2.224       1.114      3.3313E-03
   5    9.997       8.887       7.776       6.666       5.555       4.445       3.335       2.224       1.114      3.3313E-03
   6    9.997       8.887       7.776       6.666       5.555       4.445       3.335       2.224       1.114      3.3313E-03
   7    9.997       8.887       7.776       6.666       5.555       4.445       3.335       2.224       1.114      3.3313E-03
   8    9.997       8.887       7.776       6.666       5.555       4.445       3.335       2.224       1.114      3.3313E-03
   9    9.997       8.887       7.776       6.666       5.555       4.445       3.335       2.224       1.114      3.3313E-03
  10    9.997       8.887       7.776       6.666       5.555       4.445       3.335       2.224       1.114      3.3313E-03
1
              HEAD IN LAYER   2 AT END OF TIME STEP  53 IN STRESS PERIOD    2
  ---------------------------------------------------------------------------

            1           2           3           4           5           6           7           8           9          10
 ........................................................................................................................
   1    9.997       8.887       7.776       6.666       5.555       4.445       3.335       2.224       1.114      3.3313E-03
   2    9.997       8.887       7.776       6.666       5.555       4.445       3.335       2.224       1.114      3.3313E-03
   3    9.997       8.887       7.776       6.666       5.555       4.445       3.335       2.224       1.114      3.3313E-03
   4    9.997       8.887       7.776       6.666       5.555       4.445       3.335       2.224       1.114      3.3313E-03
   5    9.997       8.887       7.776       6.666       5.555       4.445       3.335       2.224       1.114      3.3313E-03
   6    9.997       8.887       7.776       6.666       5.555       4.445       3.335       2.224       1.114      3.3313E-03
   7    9.997       8.887       7.776       6.666       5.555       4.445       3.335       2.224       1.114      3.3313E-03
   8    9.997       8.887       7.776       6.666       5.555       4.445       3.335       2.224       1.114      3.3313E-03
   9    9.997       8.887       7.776       6.666       5.555       4.445       3.335       2.224       1.114      3.3313E-03
  10    9.997       8.887       7.776       6.666       5.555       4.445       3.335       2.224       1.114      3.3313E-03
1
              HEAD IN LAYER   3 AT END OF TIME STEP  53 IN STRESS PERIOD    2
  ---------------------------------------------------------------------------

            1           2           3           4           5           6           7           8           9          10
 ........................................................................................................................
   1    9.997       8.887       7.776       6.666       5.555       4.445       3.335       2.224       1.114      3.3313E-03
   2    9.997       8.887       7.776       6.666       5.555       4.445       3.335       2.224       1.114      3.3313E-03
   3    9.997       8.887       7.776       6.666       5.555       4.445       3.335       2.224       1.114      3.3313E-03
   4    9.997       8.887       7.776       6.666       5.555       4.445       3.335       2.224       1.114      3.3313E-03
   5    9.997       8.887       7.776       6.666       5.555       4.445       3.335       2.224       1.114      3.3313E-03
   6    9.997       8.887       7.776       6.666       5.555       4.445       3.335       2.224       1.114      3.3313E-03
   7    9.997       8.887       7.776       6.666       5.555       4.445       3.335       2.224       1.114      3.3313E-03
   8    9.997       8.887       7.776       6.666       5.555       4.445       3.335       2.224       1.114      3.3313E-03
   9    9.997       8.887       7.776       6.666       5.555       4.445       3.335       2.224       1.114      3.3313E-03
  10    9.997       8.887       7.776       6.666       5.555       4.445       3.335       2.224       1.114      3.3313E-03
1
              HEAD IN LAYER   4 AT END OF TIME STEP  53 IN STRESS PERIOD    2
  ---------------------------------------------------------------------------

            1           2           3           4           5           6           7           8           9          10
 ........................................................................................................................
   1    9.997       8.887       7.776       6.666       5.555       4.445       3.335       2.224       1.114      3.3313E-03
   2    9.997       8.887       7.776       6.666       5.555       4.445       3.335       2.224       1.114      3.3313E-03
   3    9.997       8.887       7.776       6.666       5.555       4.445       3.335       2.224       1.114      3.3313E-03
   4    9.997       8.887       7.776       6.666       5.555       4.445       3.335       2.224       1.114      3.3313E-03
   5    9.997       8.887       7.776       6.666       5.555       4.445       3.335       2.224       1.114      3.3313E-03
   6    9.997       8.887       7.776       6.666       5.555       4.445       3.335       2.224       1.114      3.3313E-03
   7    9.997       8.887       7.776       6.666       5.555       4.445       3.335       2.224       1.114      3.3313E-03
   8    9.997       8.887       7.776       6.666       5.555       4.445       3.335       2.224       1.114      3.3313E-03
   9    9.997       8.887       7.776       6.666       5.555       4.445       3.335       2.224       1.114      3.3313E-03
  10    9.997       8.887       7.776       6.666       5.555       4.445       3.335       2.224       1.114      3.3313E-03

 HEAD WILL BE SAVED ON UNIT   51 AT END OF TIME STEP   53, STRESS PERIOD    2

 DRAWDOWN WILL BE SAVED ON UNIT   52 AT END OF TIME STEP   53, STRESS PERIOD    2
1
  VOLUMETRIC BUDGET FOR ENTIRE MODEL AT END OF TIME STEP   53, STRESS PERIOD   2
  ------------------------------------------------------------------------------

     CUMULATIVE VOLUMES      L**3       RATES FOR THIS TIME STEP      L**3/T
     ------------------                 ------------------------

           IN:                                      IN:
           ---                                      ---
             STORAGE =       1.0477E-08               STORAGE =           0.0000
       CONSTANT HEAD =           0.0000         CONSTANT HEAD =           0.0000
               WELLS =           0.0000                 WELLS =           0.0000
     HEAD DEP BOUNDS =       35980.8203       HEAD DEP BOUNDS =         666.3123

            TOTAL IN =       35980.8203              TOTAL IN =         666.3123

          OUT:                                     OUT:
          ----                                     ----
             STORAGE =       5.2387E-08               STORAGE =           0.0000
       CONSTANT HEAD =           0.0000         CONSTANT HEAD =           0.0000
               WELLS =           0.0000                 WELLS =           0.0000
     HEAD DEP BOUNDS =       35978.0156       HEAD DEP BOUNDS =         666.2595

           TOTAL OUT =       35978.0156             TOTAL OUT =         666.2595

            IN - OUT =           2.8047              IN - OUT =       5.2795E-02

 PERCENT DISCREPANCY =           0.01     PERCENT DISCREPANCY =           0.01






         TIME SUMMARY AT END OF TIME STEP   53 IN STRESS PERIOD    2
                    SECONDS     MINUTES      HOURS       DAYS        YEARS
                    -----------------------------------------------------------
   TIME STEP LENGTH  86400.      1440.0      24.000      1.0000     2.73785E-03
 STRESS PERIOD TIME 4.57920E+06  76320.      1272.0      53.000     0.14511    
         TOTAL TIME 4.66560E+06  77760.      1296.0      54.000     0.14784    
1
 
 SOLVING FOR HEAD 

 OUTPUT CONTROL FOR STRESS PERIOD    2   TIME STEP   54
    SAVE HEAD FOR ALL LAYERS
    SAVE DRAWDOWN FOR ALL LAYERS
    SAVE BUDGET
    PRINT HEAD FOR ALL LAYERS
    PRINT BUDGET
 UBDSV1 SAVING "         STORAGE" ON UNIT  53 AT TIME STEP 54, STRESS PERIOD   2
 UBDSV2 SAVING "   CONSTANT HEAD" ON UNIT  53 AT TIME STEP 54, STRESS PERIOD   2
 UBDSV1 SAVING "FLOW RIGHT FACE " ON UNIT  53 AT TIME STEP 54, STRESS PERIOD   2
 UBDSV1 SAVING "FLOW FRONT FACE " ON UNIT  53 AT TIME STEP 54, STRESS PERIOD   2
 UBDSV1 SAVING "FLOW LOWER FACE " ON UNIT  53 AT TIME STEP 54, STRESS PERIOD   2
1
              HEAD IN LAYER   1 AT END OF TIME STEP  54 IN STRESS PERIOD    2
  ---------------------------------------------------------------------------

            1           2           3           4           5           6           7           8           9          10
 ........................................................................................................................
   1    9.997       8.887       7.776       6.666       5.555       4.445       3.335       2.224       1.114      3.3313E-03
   2    9.997       8.887       7.776       6.666       5.555       4.445       3.335       2.224       1.114      3.3313E-03
   3    9.997       8.887       7.776       6.666       5.555       4.445       3.335       2.224       1.114      3.3313E-03
   4    9.997       8.887       7.776       6.666       5.555       4.445       3.335       2.224       1.114      3.3313E-03
   5    9.997       8.887       7.776       6.666       5.555       4.445       3.335       2.224       1.114      3.3313E-03
   6    9.997       8.887       7.776       6.666       5.555       4.445       3.335       2.224       1.114      3.3313E-03
   7    9.997       8.887       7.776       6.666       5.555       4.445       3.335       2.224       1.114      3.3313E-03
   8    9.997       8.887       7.776       6.666       5.555       4.445       3.335       2.224       1.114      3.3313E-03
   9    9.997       8.887       7.776       6.666       5.555       4.445       3.335       2.224       1.114      3.3313E-03
  10    9.997       8.887       7.776       6.666       5.555       4.445       3.335       2.224       1.114      3.3313E-03
1
              HEAD IN LAYER   2 AT END OF TIME STEP  54 IN STRESS PERIOD    2
  ---------------------------------------------------------------------------

            1           2           3           4           5           6           7           8           9          10
 ........................................................................................................................
   1    9.997       8.887       7.776       6.666       5.555       4.445       3.335       2.224       1.114      3.3313E-03
   2    9.997       8.887       7.776       6.666       5.555       4.445       3.335       2.224       1.114      3.3313E-03
   3    9.997       8.887       7.776       6.666       5.555       4.445       3.335       2.224       1.114      3.3313E-03
   4    9.997       8.887       7.776       6.666       5.555       4.445       3.335       2.224       1.114      3.3313E-03
   5    9.997       8.887       7.776       6.666       5.555       4.445       3.335       2.224       1.114      3.3313E-03
   6    9.997       8.887       7.776       6.666       5.555       4.445       3.335       2.224       1.114      3.3313E-03
   7    9.997       8.887       7.776       6.666       5.555       4.445       3.335       2.224       1.114      3.3313E-03
   8    9.997       8.887       7.776       6.666       5.555       4.445       3.335       2.224       1.114      3.3313E-03
   9    9.997       8.887       7.776       6.666       5.555       4.445       3.335       2.224       1.114      3.3313E-03
  10    9.997       8.887       7.776       6.666       5.555       4.445       3.335       2.224       1.114      3.3313E-03
1
              HEAD IN LAYER   3 AT END OF TIME STEP  54 IN STRESS PERIOD    2
  ---------------------------------------------------------------------------

            1           2           3           4           5           6           7           8           9          10
 ........................................................................................................................
   1    9.997       8.887       7.776       6.666       5.555       4.445       3.335       2.224       1.114      3.3313E-03
   2    9.997       8.887       7.776       6.666       5.555       4.445       3.335       2.224       1.114      3.3313E-03
   3    9.997       8.887       7.776       6.666       5.555       4.445       3.335       2.224       1.114      3.3313E-03
   4    9.997       8.887       7.776       6.666       5.555       4.445       3.335       2.224       1.114      3.3313E-03
   5    9.997       8.887       7.776       6.666       5.555       4.445       3.335       2.224       1.114      3.3313E-03
   6    9.997       8.887       7.776       6.666       5.555       4.445       3.335       2.224       1.114      3.3313E-03
   7    9.997       8.887       7.776       6.666       5.555       4.445       3.335       2.224       1.114      3.3313E-03
   8    9.997       8.887       7.776       6.666       5.555       4.445       3.335       2.224       1.114      3.3313E-03
   9    9.997       8.887       7.776       6.666       5.555       4.445       3.335       2.224       1.114      3.3313E-03
  10    9.997       8.887       7.776       6.666       5.555       4.445       3.335       2.224       1.114      3.3313E-03
1
              HEAD IN LAYER   4 AT END OF TIME STEP  54 IN STRESS PERIOD    2
  ---------------------------------------------------------------------------

            1           2           3           4           5           6           7           8           9          10
 ........................................................................................................................
   1    9.997       8.887       7.776       6.666       5.555       4.445       3.335       2.224       1.114      3.3313E-03
   2    9.997       8.887       7.776       6.666       5.555       4.445       3.335       2.224       1.114      3.3313E-03
   3    9.997       8.887       7.776       6.666       5.555       4.445       3.335       2.224       1.114      3.3313E-03
   4    9.997       8.887       7.776       6.666       5.555       4.445       3.335       2.224       1.114      3.3313E-03
   5    9.997       8.887       7.776       6.666       5.555       4.445       3.335       2.224       1.114      3.3313E-03
   6    9.997       8.887       7.776       6.666       5.555       4.445       3.335       2.224       1.114      3.3313E-03
   7    9.997       8.887       7.776       6.666       5.555       4.445       3.335       2.224       1.114      3.3313E-03
   8    9.997       8.887       7.776       6.666       5.555       4.445       3.335       2.224       1.114      3.3313E-03
   9    9.997       8.887       7.776       6.666       5.555       4.445       3.335       2.224       1.114      3.3313E-03
  10    9.997       8.887       7.776       6.666       5.555       4.445       3.335       2.224       1.114      3.3313E-03

 HEAD WILL BE SAVED ON UNIT   51 AT END OF TIME STEP   54, STRESS PERIOD    2

 DRAWDOWN WILL BE SAVED ON UNIT   52 AT END OF TIME STEP   54, STRESS PERIOD    2
1
  VOLUMETRIC BUDGET FOR ENTIRE MODEL AT END OF TIME STEP   54, STRESS PERIOD   2
  ------------------------------------------------------------------------------

     CUMULATIVE VOLUMES      L**3       RATES FOR THIS TIME STEP      L**3/T
     ------------------                 ------------------------

           IN:                                      IN:
           ---                                      ---
             STORAGE =       1.0477E-08               STORAGE =           0.0000
       CONSTANT HEAD =           0.0000         CONSTANT HEAD =           0.0000
               WELLS =           0.0000                 WELLS =           0.0000
     HEAD DEP BOUNDS =       36647.1328       HEAD DEP BOUNDS =         666.3123

            TOTAL IN =       36647.1328              TOTAL IN =         666.3123

          OUT:                                     OUT:
          ----                                     ----
             STORAGE =       5.2387E-08               STORAGE =           0.0000
       CONSTANT HEAD =           0.0000         CONSTANT HEAD =           0.0000
               WELLS =           0.0000                 WELLS =           0.0000
     HEAD DEP BOUNDS =       36644.2734       HEAD DEP BOUNDS =         666.2595

           TOTAL OUT =       36644.2734             TOTAL OUT =         666.2595

            IN - OUT =           2.8594              IN - OUT =       5.2795E-02

 PERCENT DISCREPANCY =           0.01     PERCENT DISCREPANCY =           0.01






         TIME SUMMARY AT END OF TIME STEP   54 IN STRESS PERIOD    2
                    SECONDS     MINUTES      HOURS       DAYS        YEARS
                    -----------------------------------------------------------
   TIME STEP LENGTH  86400.      1440.0      24.000      1.0000     2.73785E-03
 STRESS PERIOD TIME 4.66560E+06  77760.      1296.0      54.000     0.14784    
         TOTAL TIME 4.75200E+06  79200.      1320.0      55.000     0.15058    
1
 
 SOLVING FOR HEAD 

 OUTPUT CONTROL FOR STRESS PERIOD    2   TIME STEP   55
    SAVE HEAD FOR ALL LAYERS
    SAVE DRAWDOWN FOR ALL LAYERS
    SAVE BUDGET
    PRINT HEAD FOR ALL LAYERS
    PRINT BUDGET
 UBDSV1 SAVING "         STORAGE" ON UNIT  53 AT TIME STEP 55, STRESS PERIOD   2
 UBDSV2 SAVING "   CONSTANT HEAD" ON UNIT  53 AT TIME STEP 55, STRESS PERIOD   2
 UBDSV1 SAVING "FLOW RIGHT FACE " ON UNIT  53 AT TIME STEP 55, STRESS PERIOD   2
 UBDSV1 SAVING "FLOW FRONT FACE " ON UNIT  53 AT TIME STEP 55, STRESS PERIOD   2
 UBDSV1 SAVING "FLOW LOWER FACE " ON UNIT  53 AT TIME STEP 55, STRESS PERIOD   2
1
              HEAD IN LAYER   1 AT END OF TIME STEP  55 IN STRESS PERIOD    2
  ---------------------------------------------------------------------------

            1           2           3           4           5           6           7           8           9          10
 ........................................................................................................................
   1    9.997       8.887       7.776       6.666       5.555       4.445       3.335       2.224       1.114      3.3313E-03
   2    9.997       8.887       7.776       6.666       5.555       4.445       3.335       2.224       1.114      3.3313E-03
   3    9.997       8.887       7.776       6.666       5.555       4.445       3.335       2.224       1.114      3.3313E-03
   4    9.997       8.887       7.776       6.666       5.555       4.445       3.335       2.224       1.114      3.3313E-03
   5    9.997       8.887       7.776       6.666       5.555       4.445       3.335       2.224       1.114      3.3313E-03
   6    9.997       8.887       7.776       6.666       5.555       4.445       3.335       2.224       1.114      3.3313E-03
   7    9.997       8.887       7.776       6.666       5.555       4.445       3.335       2.224       1.114      3.3313E-03
   8    9.997       8.887       7.776       6.666       5.555       4.445       3.335       2.224       1.114      3.3313E-03
   9    9.997       8.887       7.776       6.666       5.555       4.445       3.335       2.224       1.114      3.3313E-03
  10    9.997       8.887       7.776       6.666       5.555       4.445       3.335       2.224       1.114      3.3313E-03
1
              HEAD IN LAYER   2 AT END OF TIME STEP  55 IN STRESS PERIOD    2
  ---------------------------------------------------------------------------

            1           2           3           4           5           6           7           8           9          10
 ........................................................................................................................
   1    9.997       8.887       7.776       6.666       5.555       4.445       3.335       2.224       1.114      3.3313E-03
   2    9.997       8.887       7.776       6.666       5.555       4.445       3.335       2.224       1.114      3.3313E-03
   3    9.997       8.887       7.776       6.666       5.555       4.445       3.335       2.224       1.114      3.3313E-03
   4    9.997       8.887       7.776       6.666       5.555       4.445       3.335       2.224       1.114      3.3313E-03
   5    9.997       8.887       7.776       6.666       5.555       4.445       3.335       2.224       1.114      3.3313E-03
   6    9.997       8.887       7.776       6.666       5.555       4.445       3.335       2.224       1.114      3.3313E-03
   7    9.997       8.887       7.776       6.666       5.555       4.445       3.335       2.224       1.114      3.3313E-03
   8    9.997       8.887       7.776       6.666       5.555       4.445       3.335       2.224       1.114      3.3313E-03
   9    9.997       8.887       7.776       6.666       5.555       4.445       3.335       2.224       1.114      3.3313E-03
  10    9.997       8.887       7.776       6.666       5.555       4.445       3.335       2.224       1.114      3.3313E-03
1
              HEAD IN LAYER   3 AT END OF TIME STEP  55 IN STRESS PERIOD    2
  ---------------------------------------------------------------------------

            1           2           3           4           5           6           7           8           9          10
 ........................................................................................................................
   1    9.997       8.887       7.776       6.666       5.555       4.445       3.335       2.224       1.114      3.3313E-03
   2    9.997       8.887       7.776       6.666       5.555       4.445       3.335       2.224       1.114      3.3313E-03
   3    9.997       8.887       7.776       6.666       5.555       4.445       3.335       2.224       1.114      3.3313E-03
   4    9.997       8.887       7.776       6.666       5.555       4.445       3.335       2.224       1.114      3.3313E-03
   5    9.997       8.887       7.776       6.666       5.555       4.445       3.335       2.224       1.114      3.3313E-03
   6    9.997       8.887       7.776       6.666       5.555       4.445       3.335       2.224       1.114      3.3313E-03
   7    9.997       8.887       7.776       6.666       5.555       4.445       3.335       2.224       1.114      3.3313E-03
   8    9.997       8.887       7.776       6.666       5.555       4.445       3.335       2.224       1.114      3.3313E-03
   9    9.997       8.887       7.776       6.666       5.555       4.445       3.335       2.224       1.114      3.3313E-03
  10    9.997       8.887       7.776       6.666       5.555       4.445       3.335       2.224       1.114      3.3313E-03
1
              HEAD IN LAYER   4 AT END OF TIME STEP  55 IN STRESS PERIOD    2
  ---------------------------------------------------------------------------

            1           2           3           4           5           6           7           8           9          10
 ........................................................................................................................
   1    9.997       8.887       7.776       6.666       5.555       4.445       3.335       2.224       1.114      3.3313E-03
   2    9.997       8.887       7.776       6.666       5.555       4.445       3.335       2.224       1.114      3.3313E-03
   3    9.997       8.887       7.776       6.666       5.555       4.445       3.335       2.224       1.114      3.3313E-03
   4    9.997       8.887       7.776       6.666       5.555       4.445       3.335       2.224       1.114      3.3313E-03
   5    9.997       8.887       7.776       6.666       5.555       4.445       3.335       2.224       1.114      3.3313E-03
   6    9.997       8.887       7.776       6.666       5.555       4.445       3.335       2.224       1.114      3.3313E-03
   7    9.997       8.887       7.776       6.666       5.555       4.445       3.335       2.224       1.114      3.3313E-03
   8    9.997       8.887       7.776       6.666       5.555       4.445       3.335       2.224       1.114      3.3313E-03
   9    9.997       8.887       7.776       6.666       5.555       4.445       3.335       2.224       1.114      3.3313E-03
  10    9.997       8.887       7.776       6.666       5.555       4.445       3.335       2.224       1.114      3.3313E-03

 HEAD WILL BE SAVED ON UNIT   51 AT END OF TIME STEP   55, STRESS PERIOD    2

 DRAWDOWN WILL BE SAVED ON UNIT   52 AT END OF TIME STEP   55, STRESS PERIOD    2
1
  VOLUMETRIC BUDGET FOR ENTIRE MODEL AT END OF TIME STEP   55, STRESS PERIOD   2
  ------------------------------------------------------------------------------

     CUMULATIVE VOLUMES      L**3       RATES FOR THIS TIME STEP      L**3/T
     ------------------                 ------------------------

           IN:                                      IN:
           ---                                      ---
             STORAGE =       1.0477E-08               STORAGE =           0.0000
       CONSTANT HEAD =           0.0000         CONSTANT HEAD =           0.0000
               WELLS =           0.0000                 WELLS =           0.0000
     HEAD DEP BOUNDS =       37313.4453       HEAD DEP BOUNDS =         666.3123

            TOTAL IN =       37313.4453              TOTAL IN =         666.3123

          OUT:                                     OUT:
          ----                                     ----
             STORAGE =       5.2387E-08               STORAGE =           0.0000
       CONSTANT HEAD =           0.0000         CONSTANT HEAD =           0.0000
               WELLS =           0.0000                 WELLS =           0.0000
     HEAD DEP BOUNDS =       37310.5312       HEAD DEP BOUNDS =         666.2595

           TOTAL OUT =       37310.5312             TOTAL OUT =         666.2595

            IN - OUT =           2.9141              IN - OUT =       5.2795E-02

 PERCENT DISCREPANCY =           0.01     PERCENT DISCREPANCY =           0.01






         TIME SUMMARY AT END OF TIME STEP   55 IN STRESS PERIOD    2
                    SECONDS     MINUTES      HOURS       DAYS        YEARS
                    -----------------------------------------------------------
   TIME STEP LENGTH  86400.      1440.0      24.000      1.0000     2.73785E-03
 STRESS PERIOD TIME 4.75200E+06  79200.      1320.0      55.000     0.15058    
         TOTAL TIME 4.83840E+06  80640.      1344.0      56.000     0.15332    
1
 
 SOLVING FOR HEAD 

 OUTPUT CONTROL FOR STRESS PERIOD    2   TIME STEP   56
    SAVE HEAD FOR ALL LAYERS
    SAVE DRAWDOWN FOR ALL LAYERS
    SAVE BUDGET
    PRINT HEAD FOR ALL LAYERS
    PRINT BUDGET
 UBDSV1 SAVING "         STORAGE" ON UNIT  53 AT TIME STEP 56, STRESS PERIOD   2
 UBDSV2 SAVING "   CONSTANT HEAD" ON UNIT  53 AT TIME STEP 56, STRESS PERIOD   2
 UBDSV1 SAVING "FLOW RIGHT FACE " ON UNIT  53 AT TIME STEP 56, STRESS PERIOD   2
 UBDSV1 SAVING "FLOW FRONT FACE " ON UNIT  53 AT TIME STEP 56, STRESS PERIOD   2
 UBDSV1 SAVING "FLOW LOWER FACE " ON UNIT  53 AT TIME STEP 56, STRESS PERIOD   2
1
              HEAD IN LAYER   1 AT END OF TIME STEP  56 IN STRESS PERIOD    2
  ---------------------------------------------------------------------------

            1           2           3           4           5           6           7           8           9          10
 ........................................................................................................................
   1    9.997       8.887       7.776       6.666       5.555       4.445       3.335       2.224       1.114      3.3313E-03
   2    9.997       8.887       7.776       6.666       5.555       4.445       3.335       2.224       1.114      3.3313E-03
   3    9.997       8.887       7.776       6.666       5.555       4.445       3.335       2.224       1.114      3.3313E-03
   4    9.997       8.887       7.776       6.666       5.555       4.445       3.335       2.224       1.114      3.3313E-03
   5    9.997       8.887       7.776       6.666       5.555       4.445       3.335       2.224       1.114      3.3313E-03
   6    9.997       8.887       7.776       6.666       5.555       4.445       3.335       2.224       1.114      3.3313E-03
   7    9.997       8.887       7.776       6.666       5.555       4.445       3.335       2.224       1.114      3.3313E-03
   8    9.997       8.887       7.776       6.666       5.555       4.445       3.335       2.224       1.114      3.3313E-03
   9    9.997       8.887       7.776       6.666       5.555       4.445       3.335       2.224       1.114      3.3313E-03
  10    9.997       8.887       7.776       6.666       5.555       4.445       3.335       2.224       1.114      3.3313E-03
1
              HEAD IN LAYER   2 AT END OF TIME STEP  56 IN STRESS PERIOD    2
  ---------------------------------------------------------------------------

            1           2           3           4           5           6           7           8           9          10
 ........................................................................................................................
   1    9.997       8.887       7.776       6.666       5.555       4.445       3.335       2.224       1.114      3.3313E-03
   2    9.997       8.887       7.776       6.666       5.555       4.445       3.335       2.224       1.114      3.3313E-03
   3    9.997       8.887       7.776       6.666       5.555       4.445       3.335       2.224       1.114      3.3313E-03
   4    9.997       8.887       7.776       6.666       5.555       4.445       3.335       2.224       1.114      3.3313E-03
   5    9.997       8.887       7.776       6.666       5.555       4.445       3.335       2.224       1.114      3.3313E-03
   6    9.997       8.887       7.776       6.666       5.555       4.445       3.335       2.224       1.114      3.3313E-03
   7    9.997       8.887       7.776       6.666       5.555       4.445       3.335       2.224       1.114      3.3313E-03
   8    9.997       8.887       7.776       6.666       5.555       4.445       3.335       2.224       1.114      3.3313E-03
   9    9.997       8.887       7.776       6.666       5.555       4.445       3.335       2.224       1.114      3.3313E-03
  10    9.997       8.887       7.776       6.666       5.555       4.445       3.335       2.224       1.114      3.3313E-03
1
              HEAD IN LAYER   3 AT END OF TIME STEP  56 IN STRESS PERIOD    2
  ---------------------------------------------------------------------------

            1           2           3           4           5           6           7           8           9          10
 ........................................................................................................................
   1    9.997       8.887       7.776       6.666       5.555       4.445       3.335       2.224       1.114      3.3313E-03
   2    9.997       8.887       7.776       6.666       5.555       4.445       3.335       2.224       1.114      3.3313E-03
   3    9.997       8.887       7.776       6.666       5.555       4.445       3.335       2.224       1.114      3.3313E-03
   4    9.997       8.887       7.776       6.666       5.555       4.445       3.335       2.224       1.114      3.3313E-03
   5    9.997       8.887       7.776       6.666       5.555       4.445       3.335       2.224       1.114      3.3313E-03
   6    9.997       8.887       7.776       6.666       5.555       4.445       3.335       2.224       1.114      3.3313E-03
   7    9.997       8.887       7.776       6.666       5.555       4.445       3.335       2.224       1.114      3.3313E-03
   8    9.997       8.887       7.776       6.666       5.555       4.445       3.335       2.224       1.114      3.3313E-03
   9    9.997       8.887       7.776       6.666       5.555       4.445       3.335       2.224       1.114      3.3313E-03
  10    9.997       8.887       7.776       6.666       5.555       4.445       3.335       2.224       1.114      3.3313E-03
1
              HEAD IN LAYER   4 AT END OF TIME STEP  56 IN STRESS PERIOD    2
  ---------------------------------------------------------------------------

            1           2           3           4           5           6           7           8           9          10
 ........................................................................................................................
   1    9.997       8.887       7.776       6.666       5.555       4.445       3.335       2.224       1.114      3.3313E-03
   2    9.997       8.887       7.776       6.666       5.555       4.445       3.335       2.224       1.114      3.3313E-03
   3    9.997       8.887       7.776       6.666       5.555       4.445       3.335       2.224       1.114      3.3313E-03
   4    9.997       8.887       7.776       6.666       5.555       4.445       3.335       2.224       1.114      3.3313E-03
   5    9.997       8.887       7.776       6.666       5.555       4.445       3.335       2.224       1.114      3.3313E-03
   6    9.997       8.887       7.776       6.666       5.555       4.445       3.335       2.224       1.114      3.3313E-03
   7    9.997       8.887       7.776       6.666       5.555       4.445       3.335       2.224       1.114      3.3313E-03
   8    9.997       8.887       7.776       6.666       5.555       4.445       3.335       2.224       1.114      3.3313E-03
   9    9.997       8.887       7.776       6.666       5.555       4.445       3.335       2.224       1.114      3.3313E-03
  10    9.997       8.887       7.776       6.666       5.555       4.445       3.335       2.224       1.114      3.3313E-03

 HEAD WILL BE SAVED ON UNIT   51 AT END OF TIME STEP   56, STRESS PERIOD    2

 DRAWDOWN WILL BE SAVED ON UNIT   52 AT END OF TIME STEP   56, STRESS PERIOD    2
1
  VOLUMETRIC BUDGET FOR ENTIRE MODEL AT END OF TIME STEP   56, STRESS PERIOD   2
  ------------------------------------------------------------------------------

     CUMULATIVE VOLUMES      L**3       RATES FOR THIS TIME STEP      L**3/T
     ------------------                 ------------------------

           IN:                                      IN:
           ---                                      ---
             STORAGE =       1.0477E-08               STORAGE =           0.0000
       CONSTANT HEAD =           0.0000         CONSTANT HEAD =           0.0000
               WELLS =           0.0000                 WELLS =           0.0000
     HEAD DEP BOUNDS =       37979.7578       HEAD DEP BOUNDS =         666.3123

            TOTAL IN =       37979.7578              TOTAL IN =         666.3123

          OUT:                                     OUT:
          ----                                     ----
             STORAGE =       5.2387E-08               STORAGE =           0.0000
       CONSTANT HEAD =           0.0000         CONSTANT HEAD =           0.0000
               WELLS =           0.0000                 WELLS =           0.0000
     HEAD DEP BOUNDS =       37976.7891       HEAD DEP BOUNDS =         666.2595

           TOTAL OUT =       37976.7891             TOTAL OUT =         666.2595

            IN - OUT =           2.9688              IN - OUT =       5.2795E-02

 PERCENT DISCREPANCY =           0.01     PERCENT DISCREPANCY =           0.01






         TIME SUMMARY AT END OF TIME STEP   56 IN STRESS PERIOD    2
                    SECONDS     MINUTES      HOURS       DAYS        YEARS
                    -----------------------------------------------------------
   TIME STEP LENGTH  86400.      1440.0      24.000      1.0000     2.73785E-03
 STRESS PERIOD TIME 4.83840E+06  80640.      1344.0      56.000     0.15332    
         TOTAL TIME 4.92480E+06  82080.      1368.0      57.000     0.15606    
1
 
 SOLVING FOR HEAD 

 OUTPUT CONTROL FOR STRESS PERIOD    2   TIME STEP   57
    SAVE HEAD FOR ALL LAYERS
    SAVE DRAWDOWN FOR ALL LAYERS
    SAVE BUDGET
    PRINT HEAD FOR ALL LAYERS
    PRINT BUDGET
 UBDSV1 SAVING "         STORAGE" ON UNIT  53 AT TIME STEP 57, STRESS PERIOD   2
 UBDSV2 SAVING "   CONSTANT HEAD" ON UNIT  53 AT TIME STEP 57, STRESS PERIOD   2
 UBDSV1 SAVING "FLOW RIGHT FACE " ON UNIT  53 AT TIME STEP 57, STRESS PERIOD   2
 UBDSV1 SAVING "FLOW FRONT FACE " ON UNIT  53 AT TIME STEP 57, STRESS PERIOD   2
 UBDSV1 SAVING "FLOW LOWER FACE " ON UNIT  53 AT TIME STEP 57, STRESS PERIOD   2
1
              HEAD IN LAYER   1 AT END OF TIME STEP  57 IN STRESS PERIOD    2
  ---------------------------------------------------------------------------

            1           2           3           4           5           6           7           8           9          10
 ........................................................................................................................
   1    9.997       8.887       7.776       6.666       5.555       4.445       3.335       2.224       1.114      3.3313E-03
   2    9.997       8.887       7.776       6.666       5.555       4.445       3.335       2.224       1.114      3.3313E-03
   3    9.997       8.887       7.776       6.666       5.555       4.445       3.335       2.224       1.114      3.3313E-03
   4    9.997       8.887       7.776       6.666       5.555       4.445       3.335       2.224       1.114      3.3313E-03
   5    9.997       8.887       7.776       6.666       5.555       4.445       3.335       2.224       1.114      3.3313E-03
   6    9.997       8.887       7.776       6.666       5.555       4.445       3.335       2.224       1.114      3.3313E-03
   7    9.997       8.887       7.776       6.666       5.555       4.445       3.335       2.224       1.114      3.3313E-03
   8    9.997       8.887       7.776       6.666       5.555       4.445       3.335       2.224       1.114      3.3313E-03
   9    9.997       8.887       7.776       6.666       5.555       4.445       3.335       2.224       1.114      3.3313E-03
  10    9.997       8.887       7.776       6.666       5.555       4.445       3.335       2.224       1.114      3.3313E-03
1
              HEAD IN LAYER   2 AT END OF TIME STEP  57 IN STRESS PERIOD    2
  ---------------------------------------------------------------------------

            1           2           3           4           5           6           7           8           9          10
 ........................................................................................................................
   1    9.997       8.887       7.776       6.666       5.555       4.445       3.335       2.224       1.114      3.3313E-03
   2    9.997       8.887       7.776       6.666       5.555       4.445       3.335       2.224       1.114      3.3313E-03
   3    9.997       8.887       7.776       6.666       5.555       4.445       3.335       2.224       1.114      3.3313E-03
   4    9.997       8.887       7.776       6.666       5.555       4.445       3.335       2.224       1.114      3.3313E-03
   5    9.997       8.887       7.776       6.666       5.555       4.445       3.335       2.224       1.114      3.3313E-03
   6    9.997       8.887       7.776       6.666       5.555       4.445       3.335       2.224       1.114      3.3313E-03
   7    9.997       8.887       7.776       6.666       5.555       4.445       3.335       2.224       1.114      3.3313E-03
   8    9.997       8.887       7.776       6.666       5.555       4.445       3.335       2.224       1.114      3.3313E-03
   9    9.997       8.887       7.776       6.666       5.555       4.445       3.335       2.224       1.114      3.3313E-03
  10    9.997       8.887       7.776       6.666       5.555       4.445       3.335       2.224       1.114      3.3313E-03
1
              HEAD IN LAYER   3 AT END OF TIME STEP  57 IN STRESS PERIOD    2
  ---------------------------------------------------------------------------

            1           2           3           4           5           6           7           8           9          10
 ........................................................................................................................
   1    9.997       8.887       7.776       6.666       5.555       4.445       3.335       2.224       1.114      3.3313E-03
   2    9.997       8.887       7.776       6.666       5.555       4.445       3.335       2.224       1.114      3.3313E-03
   3    9.997       8.887       7.776       6.666       5.555       4.445       3.335       2.224       1.114      3.3313E-03
   4    9.997       8.887       7.776       6.666       5.555       4.445       3.335       2.224       1.114      3.3313E-03
   5    9.997       8.887       7.776       6.666       5.555       4.445       3.335       2.224       1.114      3.3313E-03
   6    9.997       8.887       7.776       6.666       5.555       4.445       3.335       2.224       1.114      3.3313E-03
   7    9.997       8.887       7.776       6.666       5.555       4.445       3.335       2.224       1.114      3.3313E-03
   8    9.997       8.887       7.776       6.666       5.555       4.445       3.335       2.224       1.114      3.3313E-03
   9    9.997       8.887       7.776       6.666       5.555       4.445       3.335       2.224       1.114      3.3313E-03
  10    9.997       8.887       7.776       6.666       5.555       4.445       3.335       2.224       1.114      3.3313E-03
1
              HEAD IN LAYER   4 AT END OF TIME STEP  57 IN STRESS PERIOD    2
  ---------------------------------------------------------------------------

            1           2           3           4           5           6           7           8           9          10
 ........................................................................................................................
   1    9.997       8.887       7.776       6.666       5.555       4.445       3.335       2.224       1.114      3.3313E-03
   2    9.997       8.887       7.776       6.666       5.555       4.445       3.335       2.224       1.114      3.3313E-03
   3    9.997       8.887       7.776       6.666       5.555       4.445       3.335       2.224       1.114      3.3313E-03
   4    9.997       8.887       7.776       6.666       5.555       4.445       3.335       2.224       1.114      3.3313E-03
   5    9.997       8.887       7.776       6.666       5.555       4.445       3.335       2.224       1.114      3.3313E-03
   6    9.997       8.887       7.776       6.666       5.555       4.445       3.335       2.224       1.114      3.3313E-03
   7    9.997       8.887       7.776       6.666       5.555       4.445       3.335       2.224       1.114      3.3313E-03
   8    9.997       8.887       7.776       6.666       5.555       4.445       3.335       2.224       1.114      3.3313E-03
   9    9.997       8.887       7.776       6.666       5.555       4.445       3.335       2.224       1.114      3.3313E-03
  10    9.997       8.887       7.776       6.666       5.555       4.445       3.335       2.224       1.114      3.3313E-03

 HEAD WILL BE SAVED ON UNIT   51 AT END OF TIME STEP   57, STRESS PERIOD    2

 DRAWDOWN WILL BE SAVED ON UNIT   52 AT END OF TIME STEP   57, STRESS PERIOD    2
1
  VOLUMETRIC BUDGET FOR ENTIRE MODEL AT END OF TIME STEP   57, STRESS PERIOD   2
  ------------------------------------------------------------------------------

     CUMULATIVE VOLUMES      L**3       RATES FOR THIS TIME STEP      L**3/T
     ------------------                 ------------------------

           IN:                                      IN:
           ---                                      ---
             STORAGE =       1.0477E-08               STORAGE =           0.0000
       CONSTANT HEAD =           0.0000         CONSTANT HEAD =           0.0000
               WELLS =           0.0000                 WELLS =           0.0000
     HEAD DEP BOUNDS =       38646.0703       HEAD DEP BOUNDS =         666.3123

            TOTAL IN =       38646.0703              TOTAL IN =         666.3123

          OUT:                                     OUT:
          ----                                     ----
             STORAGE =       5.2387E-08               STORAGE =           0.0000
       CONSTANT HEAD =           0.0000         CONSTANT HEAD =           0.0000
               WELLS =           0.0000                 WELLS =           0.0000
     HEAD DEP BOUNDS =       38643.0469       HEAD DEP BOUNDS =         666.2595

           TOTAL OUT =       38643.0469             TOTAL OUT =         666.2595

            IN - OUT =           3.0234              IN - OUT =       5.2795E-02

 PERCENT DISCREPANCY =           0.01     PERCENT DISCREPANCY =           0.01






         TIME SUMMARY AT END OF TIME STEP   57 IN STRESS PERIOD    2
                    SECONDS     MINUTES      HOURS       DAYS        YEARS
                    -----------------------------------------------------------
   TIME STEP LENGTH  86400.      1440.0      24.000      1.0000     2.73785E-03
 STRESS PERIOD TIME 4.92480E+06  82080.      1368.0      57.000     0.15606    
         TOTAL TIME 5.01120E+06  83520.      1392.0      58.000     0.15880    
1
 
 SOLVING FOR HEAD 

 OUTPUT CONTROL FOR STRESS PERIOD    2   TIME STEP   58
    SAVE HEAD FOR ALL LAYERS
    SAVE DRAWDOWN FOR ALL LAYERS
    SAVE BUDGET
    PRINT HEAD FOR ALL LAYERS
    PRINT BUDGET
 UBDSV1 SAVING "         STORAGE" ON UNIT  53 AT TIME STEP 58, STRESS PERIOD   2
 UBDSV2 SAVING "   CONSTANT HEAD" ON UNIT  53 AT TIME STEP 58, STRESS PERIOD   2
 UBDSV1 SAVING "FLOW RIGHT FACE " ON UNIT  53 AT TIME STEP 58, STRESS PERIOD   2
 UBDSV1 SAVING "FLOW FRONT FACE " ON UNIT  53 AT TIME STEP 58, STRESS PERIOD   2
 UBDSV1 SAVING "FLOW LOWER FACE " ON UNIT  53 AT TIME STEP 58, STRESS PERIOD   2
1
              HEAD IN LAYER   1 AT END OF TIME STEP  58 IN STRESS PERIOD    2
  ---------------------------------------------------------------------------

            1           2           3           4           5           6           7           8           9          10
 ........................................................................................................................
   1    9.997       8.887       7.776       6.666       5.555       4.445       3.335       2.224       1.114      3.3313E-03
   2    9.997       8.887       7.776       6.666       5.555       4.445       3.335       2.224       1.114      3.3313E-03
   3    9.997       8.887       7.776       6.666       5.555       4.445       3.335       2.224       1.114      3.3313E-03
   4    9.997       8.887       7.776       6.666       5.555       4.445       3.335       2.224       1.114      3.3313E-03
   5    9.997       8.887       7.776       6.666       5.555       4.445       3.335       2.224       1.114      3.3313E-03
   6    9.997       8.887       7.776       6.666       5.555       4.445       3.335       2.224       1.114      3.3313E-03
   7    9.997       8.887       7.776       6.666       5.555       4.445       3.335       2.224       1.114      3.3313E-03
   8    9.997       8.887       7.776       6.666       5.555       4.445       3.335       2.224       1.114      3.3313E-03
   9    9.997       8.887       7.776       6.666       5.555       4.445       3.335       2.224       1.114      3.3313E-03
  10    9.997       8.887       7.776       6.666       5.555       4.445       3.335       2.224       1.114      3.3313E-03
1
              HEAD IN LAYER   2 AT END OF TIME STEP  58 IN STRESS PERIOD    2
  ---------------------------------------------------------------------------

            1           2           3           4           5           6           7           8           9          10
 ........................................................................................................................
   1    9.997       8.887       7.776       6.666       5.555       4.445       3.335       2.224       1.114      3.3313E-03
   2    9.997       8.887       7.776       6.666       5.555       4.445       3.335       2.224       1.114      3.3313E-03
   3    9.997       8.887       7.776       6.666       5.555       4.445       3.335       2.224       1.114      3.3313E-03
   4    9.997       8.887       7.776       6.666       5.555       4.445       3.335       2.224       1.114      3.3313E-03
   5    9.997       8.887       7.776       6.666       5.555       4.445       3.335       2.224       1.114      3.3313E-03
   6    9.997       8.887       7.776       6.666       5.555       4.445       3.335       2.224       1.114      3.3313E-03
   7    9.997       8.887       7.776       6.666       5.555       4.445       3.335       2.224       1.114      3.3313E-03
   8    9.997       8.887       7.776       6.666       5.555       4.445       3.335       2.224       1.114      3.3313E-03
   9    9.997       8.887       7.776       6.666       5.555       4.445       3.335       2.224       1.114      3.3313E-03
  10    9.997       8.887       7.776       6.666       5.555       4.445       3.335       2.224       1.114      3.3313E-03
1
              HEAD IN LAYER   3 AT END OF TIME STEP  58 IN STRESS PERIOD    2
  ---------------------------------------------------------------------------

            1           2           3           4           5           6           7           8           9          10
 ........................................................................................................................
   1    9.997       8.887       7.776       6.666       5.555       4.445       3.335       2.224       1.114      3.3313E-03
   2    9.997       8.887       7.776       6.666       5.555       4.445       3.335       2.224       1.114      3.3313E-03
   3    9.997       8.887       7.776       6.666       5.555       4.445       3.335       2.224       1.114      3.3313E-03
   4    9.997       8.887       7.776       6.666       5.555       4.445       3.335       2.224       1.114      3.3313E-03
   5    9.997       8.887       7.776       6.666       5.555       4.445       3.335       2.224       1.114      3.3313E-03
   6    9.997       8.887       7.776       6.666       5.555       4.445       3.335       2.224       1.114      3.3313E-03
   7    9.997       8.887       7.776       6.666       5.555       4.445       3.335       2.224       1.114      3.3313E-03
   8    9.997       8.887       7.776       6.666       5.555       4.445       3.335       2.224       1.114      3.3313E-03
   9    9.997       8.887       7.776       6.666       5.555       4.445       3.335       2.224       1.114      3.3313E-03
  10    9.997       8.887       7.776       6.666       5.555       4.445       3.335       2.224       1.114      3.3313E-03
1
              HEAD IN LAYER   4 AT END OF TIME STEP  58 IN STRESS PERIOD    2
  ---------------------------------------------------------------------------

            1           2           3           4           5           6           7           8           9          10
 ........................................................................................................................
   1    9.997       8.887       7.776       6.666       5.555       4.445       3.335       2.224       1.114      3.3313E-03
   2    9.997       8.887       7.776       6.666       5.555       4.445       3.335       2.224       1.114      3.3313E-03
   3    9.997       8.887       7.776       6.666       5.555       4.445       3.335       2.224       1.114      3.3313E-03
   4    9.997       8.887       7.776       6.666       5.555       4.445       3.335       2.224       1.114      3.3313E-03
   5    9.997       8.887       7.776       6.666       5.555       4.445       3.335       2.224       1.114      3.3313E-03
   6    9.997       8.887       7.776       6.666       5.555       4.445       3.335       2.224       1.114      3.3313E-03
   7    9.997       8.887       7.776       6.666       5.555       4.445       3.335       2.224       1.114      3.3313E-03
   8    9.997       8.887       7.776       6.666       5.555       4.445       3.335       2.224       1.114      3.3313E-03
   9    9.997       8.887       7.776       6.666       5.555       4.445       3.335       2.224       1.114      3.3313E-03
  10    9.997       8.887       7.776       6.666       5.555       4.445       3.335       2.224       1.114      3.3313E-03

 HEAD WILL BE SAVED ON UNIT   51 AT END OF TIME STEP   58, STRESS PERIOD    2

 DRAWDOWN WILL BE SAVED ON UNIT   52 AT END OF TIME STEP   58, STRESS PERIOD    2
1
  VOLUMETRIC BUDGET FOR ENTIRE MODEL AT END OF TIME STEP   58, STRESS PERIOD   2
  ------------------------------------------------------------------------------

     CUMULATIVE VOLUMES      L**3       RATES FOR THIS TIME STEP      L**3/T
     ------------------                 ------------------------

           IN:                                      IN:
           ---                                      ---
             STORAGE =       1.0477E-08               STORAGE =           0.0000
       CONSTANT HEAD =           0.0000         CONSTANT HEAD =           0.0000
               WELLS =           0.0000                 WELLS =           0.0000
     HEAD DEP BOUNDS =       39312.3828       HEAD DEP BOUNDS =         666.3123

            TOTAL IN =       39312.3828              TOTAL IN =         666.3123

          OUT:                                     OUT:
          ----                                     ----
             STORAGE =       5.2387E-08               STORAGE =           0.0000
       CONSTANT HEAD =           0.0000         CONSTANT HEAD =           0.0000
               WELLS =           0.0000                 WELLS =           0.0000
     HEAD DEP BOUNDS =       39309.3047       HEAD DEP BOUNDS =         666.2595

           TOTAL OUT =       39309.3047             TOTAL OUT =         666.2595

            IN - OUT =           3.0781              IN - OUT =       5.2795E-02

 PERCENT DISCREPANCY =           0.01     PERCENT DISCREPANCY =           0.01






         TIME SUMMARY AT END OF TIME STEP   58 IN STRESS PERIOD    2
                    SECONDS     MINUTES      HOURS       DAYS        YEARS
                    -----------------------------------------------------------
   TIME STEP LENGTH  86400.      1440.0      24.000      1.0000     2.73785E-03
 STRESS PERIOD TIME 5.01120E+06  83520.      1392.0      58.000     0.15880    
         TOTAL TIME 5.09760E+06  84960.      1416.0      59.000     0.16153    
1
 
 SOLVING FOR HEAD 

 OUTPUT CONTROL FOR STRESS PERIOD    2   TIME STEP   59
    SAVE HEAD FOR ALL LAYERS
    SAVE DRAWDOWN FOR ALL LAYERS
    SAVE BUDGET
    PRINT HEAD FOR ALL LAYERS
    PRINT BUDGET
 UBDSV1 SAVING "         STORAGE" ON UNIT  53 AT TIME STEP 59, STRESS PERIOD   2
 UBDSV2 SAVING "   CONSTANT HEAD" ON UNIT  53 AT TIME STEP 59, STRESS PERIOD   2
 UBDSV1 SAVING "FLOW RIGHT FACE " ON UNIT  53 AT TIME STEP 59, STRESS PERIOD   2
 UBDSV1 SAVING "FLOW FRONT FACE " ON UNIT  53 AT TIME STEP 59, STRESS PERIOD   2
 UBDSV1 SAVING "FLOW LOWER FACE " ON UNIT  53 AT TIME STEP 59, STRESS PERIOD   2
1
              HEAD IN LAYER   1 AT END OF TIME STEP  59 IN STRESS PERIOD    2
  ---------------------------------------------------------------------------

            1           2           3           4           5           6           7           8           9          10
 ........................................................................................................................
   1    9.997       8.887       7.776       6.666       5.555       4.445       3.335       2.224       1.114      3.3313E-03
   2    9.997       8.887       7.776       6.666       5.555       4.445       3.335       2.224       1.114      3.3313E-03
   3    9.997       8.887       7.776       6.666       5.555       4.445       3.335       2.224       1.114      3.3313E-03
   4    9.997       8.887       7.776       6.666       5.555       4.445       3.335       2.224       1.114      3.3313E-03
   5    9.997       8.887       7.776       6.666       5.555       4.445       3.335       2.224       1.114      3.3313E-03
   6    9.997       8.887       7.776       6.666       5.555       4.445       3.335       2.224       1.114      3.3313E-03
   7    9.997       8.887       7.776       6.666       5.555       4.445       3.335       2.224       1.114      3.3313E-03
   8    9.997       8.887       7.776       6.666       5.555       4.445       3.335       2.224       1.114      3.3313E-03
   9    9.997       8.887       7.776       6.666       5.555       4.445       3.335       2.224       1.114      3.3313E-03
  10    9.997       8.887       7.776       6.666       5.555       4.445       3.335       2.224       1.114      3.3313E-03
1
              HEAD IN LAYER   2 AT END OF TIME STEP  59 IN STRESS PERIOD    2
  ---------------------------------------------------------------------------

            1           2           3           4           5           6           7           8           9          10
 ........................................................................................................................
   1    9.997       8.887       7.776       6.666       5.555       4.445       3.335       2.224       1.114      3.3313E-03
   2    9.997       8.887       7.776       6.666       5.555       4.445       3.335       2.224       1.114      3.3313E-03
   3    9.997       8.887       7.776       6.666       5.555       4.445       3.335       2.224       1.114      3.3313E-03
   4    9.997       8.887       7.776       6.666       5.555       4.445       3.335       2.224       1.114      3.3313E-03
   5    9.997       8.887       7.776       6.666       5.555       4.445       3.335       2.224       1.114      3.3313E-03
   6    9.997       8.887       7.776       6.666       5.555       4.445       3.335       2.224       1.114      3.3313E-03
   7    9.997       8.887       7.776       6.666       5.555       4.445       3.335       2.224       1.114      3.3313E-03
   8    9.997       8.887       7.776       6.666       5.555       4.445       3.335       2.224       1.114      3.3313E-03
   9    9.997       8.887       7.776       6.666       5.555       4.445       3.335       2.224       1.114      3.3313E-03
  10    9.997       8.887       7.776       6.666       5.555       4.445       3.335       2.224       1.114      3.3313E-03
1
              HEAD IN LAYER   3 AT END OF TIME STEP  59 IN STRESS PERIOD    2
  ---------------------------------------------------------------------------

            1           2           3           4           5           6           7           8           9          10
 ........................................................................................................................
   1    9.997       8.887       7.776       6.666       5.555       4.445       3.335       2.224       1.114      3.3313E-03
   2    9.997       8.887       7.776       6.666       5.555       4.445       3.335       2.224       1.114      3.3313E-03
   3    9.997       8.887       7.776       6.666       5.555       4.445       3.335       2.224       1.114      3.3313E-03
   4    9.997       8.887       7.776       6.666       5.555       4.445       3.335       2.224       1.114      3.3313E-03
   5    9.997       8.887       7.776       6.666       5.555       4.445       3.335       2.224       1.114      3.3313E-03
   6    9.997       8.887       7.776       6.666       5.555       4.445       3.335       2.224       1.114      3.3313E-03
   7    9.997       8.887       7.776       6.666       5.555       4.445       3.335       2.224       1.114      3.3313E-03
   8    9.997       8.887       7.776       6.666       5.555       4.445       3.335       2.224       1.114      3.3313E-03
   9    9.997       8.887       7.776       6.666       5.555       4.445       3.335       2.224       1.114      3.3313E-03
  10    9.997       8.887       7.776       6.666       5.555       4.445       3.335       2.224       1.114      3.3313E-03
1
              HEAD IN LAYER   4 AT END OF TIME STEP  59 IN STRESS PERIOD    2
  ---------------------------------------------------------------------------

            1           2           3           4           5           6           7           8           9          10
 ........................................................................................................................
   1    9.997       8.887       7.776       6.666       5.555       4.445       3.335       2.224       1.114      3.3313E-03
   2    9.997       8.887       7.776       6.666       5.555       4.445       3.335       2.224       1.114      3.3313E-03
   3    9.997       8.887       7.776       6.666       5.555       4.445       3.335       2.224       1.114      3.3313E-03
   4    9.997       8.887       7.776       6.666       5.555       4.445       3.335       2.224       1.114      3.3313E-03
   5    9.997       8.887       7.776       6.666       5.555       4.445       3.335       2.224       1.114      3.3313E-03
   6    9.997       8.887       7.776       6.666       5.555       4.445       3.335       2.224       1.114      3.3313E-03
   7    9.997       8.887       7.776       6.666       5.555       4.445       3.335       2.224       1.114      3.3313E-03
   8    9.997       8.887       7.776       6.666       5.555       4.445       3.335       2.224       1.114      3.3313E-03
   9    9.997       8.887       7.776       6.666       5.555       4.445       3.335       2.224       1.114      3.3313E-03
  10    9.997       8.887       7.776       6.666       5.555       4.445       3.335       2.224       1.114      3.3313E-03

 HEAD WILL BE SAVED ON UNIT   51 AT END OF TIME STEP   59, STRESS PERIOD    2

 DRAWDOWN WILL BE SAVED ON UNIT   52 AT END OF TIME STEP   59, STRESS PERIOD    2
1
  VOLUMETRIC BUDGET FOR ENTIRE MODEL AT END OF TIME STEP   59, STRESS PERIOD   2
  ------------------------------------------------------------------------------

     CUMULATIVE VOLUMES      L**3       RATES FOR THIS TIME STEP      L**3/T
     ------------------                 ------------------------

           IN:                                      IN:
           ---                                      ---
             STORAGE =       1.0477E-08               STORAGE =           0.0000
       CONSTANT HEAD =           0.0000         CONSTANT HEAD =           0.0000
               WELLS =           0.0000                 WELLS =           0.0000
     HEAD DEP BOUNDS =       39978.6953       HEAD DEP BOUNDS =         666.3123

            TOTAL IN =       39978.6953              TOTAL IN =         666.3123

          OUT:                                     OUT:
          ----                                     ----
             STORAGE =       5.2387E-08               STORAGE =           0.0000
       CONSTANT HEAD =           0.0000         CONSTANT HEAD =           0.0000
               WELLS =           0.0000                 WELLS =           0.0000
     HEAD DEP BOUNDS =       39975.5625       HEAD DEP BOUNDS =         666.2595

           TOTAL OUT =       39975.5625             TOTAL OUT =         666.2595

            IN - OUT =           3.1328              IN - OUT =       5.2795E-02

 PERCENT DISCREPANCY =           0.01     PERCENT DISCREPANCY =           0.01






         TIME SUMMARY AT END OF TIME STEP   59 IN STRESS PERIOD    2
                    SECONDS     MINUTES      HOURS       DAYS        YEARS
                    -----------------------------------------------------------
   TIME STEP LENGTH  86400.      1440.0      24.000      1.0000     2.73785E-03
 STRESS PERIOD TIME 5.09760E+06  84960.      1416.0      59.000     0.16153    
         TOTAL TIME 5.18400E+06  86400.      1440.0      60.000     0.16427    
1
 
 SOLVING FOR HEAD 

 OUTPUT CONTROL FOR STRESS PERIOD    2   TIME STEP   60
    SAVE HEAD FOR ALL LAYERS
    SAVE DRAWDOWN FOR ALL LAYERS
    SAVE BUDGET
    PRINT HEAD FOR ALL LAYERS
    PRINT BUDGET
 UBDSV1 SAVING "         STORAGE" ON UNIT  53 AT TIME STEP 60, STRESS PERIOD   2
 UBDSV2 SAVING "   CONSTANT HEAD" ON UNIT  53 AT TIME STEP 60, STRESS PERIOD   2
 UBDSV1 SAVING "FLOW RIGHT FACE " ON UNIT  53 AT TIME STEP 60, STRESS PERIOD   2
 UBDSV1 SAVING "FLOW FRONT FACE " ON UNIT  53 AT TIME STEP 60, STRESS PERIOD   2
 UBDSV1 SAVING "FLOW LOWER FACE " ON UNIT  53 AT TIME STEP 60, STRESS PERIOD   2
1
              HEAD IN LAYER   1 AT END OF TIME STEP  60 IN STRESS PERIOD    2
  ---------------------------------------------------------------------------

            1           2           3           4           5           6           7           8           9          10
 ........................................................................................................................
   1    9.997       8.887       7.776       6.666       5.555       4.445       3.335       2.224       1.114      3.3313E-03
   2    9.997       8.887       7.776       6.666       5.555       4.445       3.335       2.224       1.114      3.3313E-03
   3    9.997       8.887       7.776       6.666       5.555       4.445       3.335       2.224       1.114      3.3313E-03
   4    9.997       8.887       7.776       6.666       5.555       4.445       3.335       2.224       1.114      3.3313E-03
   5    9.997       8.887       7.776       6.666       5.555       4.445       3.335       2.224       1.114      3.3313E-03
   6    9.997       8.887       7.776       6.666       5.555       4.445       3.335       2.224       1.114      3.3313E-03
   7    9.997       8.887       7.776       6.666       5.555       4.445       3.335       2.224       1.114      3.3313E-03
   8    9.997       8.887       7.776       6.666       5.555       4.445       3.335       2.224       1.114      3.3313E-03
   9    9.997       8.887       7.776       6.666       5.555       4.445       3.335       2.224       1.114      3.3313E-03
  10    9.997       8.887       7.776       6.666       5.555       4.445       3.335       2.224       1.114      3.3313E-03
1
              HEAD IN LAYER   2 AT END OF TIME STEP  60 IN STRESS PERIOD    2
  ---------------------------------------------------------------------------

            1           2           3           4           5           6           7           8           9          10
 ........................................................................................................................
   1    9.997       8.887       7.776       6.666       5.555       4.445       3.335       2.224       1.114      3.3313E-03
   2    9.997       8.887       7.776       6.666       5.555       4.445       3.335       2.224       1.114      3.3313E-03
   3    9.997       8.887       7.776       6.666       5.555       4.445       3.335       2.224       1.114      3.3313E-03
   4    9.997       8.887       7.776       6.666       5.555       4.445       3.335       2.224       1.114      3.3313E-03
   5    9.997       8.887       7.776       6.666       5.555       4.445       3.335       2.224       1.114      3.3313E-03
   6    9.997       8.887       7.776       6.666       5.555       4.445       3.335       2.224       1.114      3.3313E-03
   7    9.997       8.887       7.776       6.666       5.555       4.445       3.335       2.224       1.114      3.3313E-03
   8    9.997       8.887       7.776       6.666       5.555       4.445       3.335       2.224       1.114      3.3313E-03
   9    9.997       8.887       7.776       6.666       5.555       4.445       3.335       2.224       1.114      3.3313E-03
  10    9.997       8.887       7.776       6.666       5.555       4.445       3.335       2.224       1.114      3.3313E-03
1
              HEAD IN LAYER   3 AT END OF TIME STEP  60 IN STRESS PERIOD    2
  ---------------------------------------------------------------------------

            1           2           3           4           5           6           7           8           9          10
 ........................................................................................................................
   1    9.997       8.887       7.776       6.666       5.555       4.445       3.335       2.224       1.114      3.3313E-03
   2    9.997       8.887       7.776       6.666       5.555       4.445       3.335       2.224       1.114      3.3313E-03
   3    9.997       8.887       7.776       6.666       5.555       4.445       3.335       2.224       1.114      3.3313E-03
   4    9.997       8.887       7.776       6.666       5.555       4.445       3.335       2.224       1.114      3.3313E-03
   5    9.997       8.887       7.776       6.666       5.555       4.445       3.335       2.224       1.114      3.3313E-03
   6    9.997       8.887       7.776       6.666       5.555       4.445       3.335       2.224       1.114      3.3313E-03
   7    9.997       8.887       7.776       6.666       5.555       4.445       3.335       2.224       1.114      3.3313E-03
   8    9.997       8.887       7.776       6.666       5.555       4.445       3.335       2.224       1.114      3.3313E-03
   9    9.997       8.887       7.776       6.666       5.555       4.445       3.335       2.224       1.114      3.3313E-03
  10    9.997       8.887       7.776       6.666       5.555       4.445       3.335       2.224       1.114      3.3313E-03
1
              HEAD IN LAYER   4 AT END OF TIME STEP  60 IN STRESS PERIOD    2
  ---------------------------------------------------------------------------

            1           2           3           4           5           6           7           8           9          10
 ........................................................................................................................
   1    9.997       8.887       7.776       6.666       5.555       4.445       3.335       2.224       1.114      3.3313E-03
   2    9.997       8.887       7.776       6.666       5.555       4.445       3.335       2.224       1.114      3.3313E-03
   3    9.997       8.887       7.776       6.666       5.555       4.445       3.335       2.224       1.114      3.3313E-03
   4    9.997       8.887       7.776       6.666       5.555       4.445       3.335       2.224       1.114      3.3313E-03
   5    9.997       8.887       7.776       6.666       5.555       4.445       3.335       2.224       1.114      3.3313E-03
   6    9.997       8.887       7.776       6.666       5.555       4.445       3.335       2.224       1.114      3.3313E-03
   7    9.997       8.887       7.776       6.666       5.555       4.445       3.335       2.224       1.114      3.3313E-03
   8    9.997       8.887       7.776       6.666       5.555       4.445       3.335       2.224       1.114      3.3313E-03
   9    9.997       8.887       7.776       6.666       5.555       4.445       3.335       2.224       1.114      3.3313E-03
  10    9.997       8.887       7.776       6.666       5.555       4.445       3.335       2.224       1.114      3.3313E-03

 HEAD WILL BE SAVED ON UNIT   51 AT END OF TIME STEP   60, STRESS PERIOD    2

 DRAWDOWN WILL BE SAVED ON UNIT   52 AT END OF TIME STEP   60, STRESS PERIOD    2
1
  VOLUMETRIC BUDGET FOR ENTIRE MODEL AT END OF TIME STEP   60, STRESS PERIOD   2
  ------------------------------------------------------------------------------

     CUMULATIVE VOLUMES      L**3       RATES FOR THIS TIME STEP      L**3/T
     ------------------                 ------------------------

           IN:                                      IN:
           ---                                      ---
             STORAGE =       1.0477E-08               STORAGE =           0.0000
       CONSTANT HEAD =           0.0000         CONSTANT HEAD =           0.0000
               WELLS =           0.0000                 WELLS =           0.0000
     HEAD DEP BOUNDS =       40645.0078       HEAD DEP BOUNDS =         666.3123

            TOTAL IN =       40645.0078              TOTAL IN =         666.3123

          OUT:                                     OUT:
          ----                                     ----
             STORAGE =       5.2387E-08               STORAGE =           0.0000
       CONSTANT HEAD =           0.0000         CONSTANT HEAD =           0.0000
               WELLS =           0.0000                 WELLS =           0.0000
     HEAD DEP BOUNDS =       40641.8203       HEAD DEP BOUNDS =         666.2595

           TOTAL OUT =       40641.8203             TOTAL OUT =         666.2595

            IN - OUT =           3.1875              IN - OUT =       5.2795E-02

 PERCENT DISCREPANCY =           0.01     PERCENT DISCREPANCY =           0.01






         TIME SUMMARY AT END OF TIME STEP   60 IN STRESS PERIOD    2
                    SECONDS     MINUTES      HOURS       DAYS        YEARS
                    -----------------------------------------------------------
   TIME STEP LENGTH  86400.      1440.0      24.000      1.0000     2.73785E-03
 STRESS PERIOD TIME 5.18400E+06  86400.      1440.0      60.000     0.16427    
         TOTAL TIME 5.27040E+06  87840.      1464.0      61.000     0.16701    
1
 
 SOLVING FOR HEAD 

 OUTPUT CONTROL FOR STRESS PERIOD    2   TIME STEP   61
    SAVE HEAD FOR ALL LAYERS
    SAVE DRAWDOWN FOR ALL LAYERS
    SAVE BUDGET
    PRINT HEAD FOR ALL LAYERS
    PRINT BUDGET
 UBDSV1 SAVING "         STORAGE" ON UNIT  53 AT TIME STEP 61, STRESS PERIOD   2
 UBDSV2 SAVING "   CONSTANT HEAD" ON UNIT  53 AT TIME STEP 61, STRESS PERIOD   2
 UBDSV1 SAVING "FLOW RIGHT FACE " ON UNIT  53 AT TIME STEP 61, STRESS PERIOD   2
 UBDSV1 SAVING "FLOW FRONT FACE " ON UNIT  53 AT TIME STEP 61, STRESS PERIOD   2
 UBDSV1 SAVING "FLOW LOWER FACE " ON UNIT  53 AT TIME STEP 61, STRESS PERIOD   2
1
              HEAD IN LAYER   1 AT END OF TIME STEP  61 IN STRESS PERIOD    2
  ---------------------------------------------------------------------------

            1           2           3           4           5           6           7           8           9          10
 ........................................................................................................................
   1    9.997       8.887       7.776       6.666       5.555       4.445       3.335       2.224       1.114      3.3313E-03
   2    9.997       8.887       7.776       6.666       5.555       4.445       3.335       2.224       1.114      3.3313E-03
   3    9.997       8.887       7.776       6.666       5.555       4.445       3.335       2.224       1.114      3.3313E-03
   4    9.997       8.887       7.776       6.666       5.555       4.445       3.335       2.224       1.114      3.3313E-03
   5    9.997       8.887       7.776       6.666       5.555       4.445       3.335       2.224       1.114      3.3313E-03
   6    9.997       8.887       7.776       6.666       5.555       4.445       3.335       2.224       1.114      3.3313E-03
   7    9.997       8.887       7.776       6.666       5.555       4.445       3.335       2.224       1.114      3.3313E-03
   8    9.997       8.887       7.776       6.666       5.555       4.445       3.335       2.224       1.114      3.3313E-03
   9    9.997       8.887       7.776       6.666       5.555       4.445       3.335       2.224       1.114      3.3313E-03
  10    9.997       8.887       7.776       6.666       5.555       4.445       3.335       2.224       1.114      3.3313E-03
1
              HEAD IN LAYER   2 AT END OF TIME STEP  61 IN STRESS PERIOD    2
  ---------------------------------------------------------------------------

            1           2           3           4           5           6           7           8           9          10
 ........................................................................................................................
   1    9.997       8.887       7.776       6.666       5.555       4.445       3.335       2.224       1.114      3.3313E-03
   2    9.997       8.887       7.776       6.666       5.555       4.445       3.335       2.224       1.114      3.3313E-03
   3    9.997       8.887       7.776       6.666       5.555       4.445       3.335       2.224       1.114      3.3313E-03
   4    9.997       8.887       7.776       6.666       5.555       4.445       3.335       2.224       1.114      3.3313E-03
   5    9.997       8.887       7.776       6.666       5.555       4.445       3.335       2.224       1.114      3.3313E-03
   6    9.997       8.887       7.776       6.666       5.555       4.445       3.335       2.224       1.114      3.3313E-03
   7    9.997       8.887       7.776       6.666       5.555       4.445       3.335       2.224       1.114      3.3313E-03
   8    9.997       8.887       7.776       6.666       5.555       4.445       3.335       2.224       1.114      3.3313E-03
   9    9.997       8.887       7.776       6.666       5.555       4.445       3.335       2.224       1.114      3.3313E-03
  10    9.997       8.887       7.776       6.666       5.555       4.445       3.335       2.224       1.114      3.3313E-03
1
              HEAD IN LAYER   3 AT END OF TIME STEP  61 IN STRESS PERIOD    2
  ---------------------------------------------------------------------------

            1           2           3           4           5           6           7           8           9          10
 ........................................................................................................................
   1    9.997       8.887       7.776       6.666       5.555       4.445       3.335       2.224       1.114      3.3313E-03
   2    9.997       8.887       7.776       6.666       5.555       4.445       3.335       2.224       1.114      3.3313E-03
   3    9.997       8.887       7.776       6.666       5.555       4.445       3.335       2.224       1.114      3.3313E-03
   4    9.997       8.887       7.776       6.666       5.555       4.445       3.335       2.224       1.114      3.3313E-03
   5    9.997       8.887       7.776       6.666       5.555       4.445       3.335       2.224       1.114      3.3313E-03
   6    9.997       8.887       7.776       6.666       5.555       4.445       3.335       2.224       1.114      3.3313E-03
   7    9.997       8.887       7.776       6.666       5.555       4.445       3.335       2.224       1.114      3.3313E-03
   8    9.997       8.887       7.776       6.666       5.555       4.445       3.335       2.224       1.114      3.3313E-03
   9    9.997       8.887       7.776       6.666       5.555       4.445       3.335       2.224       1.114      3.3313E-03
  10    9.997       8.887       7.776       6.666       5.555       4.445       3.335       2.224       1.114      3.3313E-03
1
              HEAD IN LAYER   4 AT END OF TIME STEP  61 IN STRESS PERIOD    2
  ---------------------------------------------------------------------------

            1           2           3           4           5           6           7           8           9          10
 ........................................................................................................................
   1    9.997       8.887       7.776       6.666       5.555       4.445       3.335       2.224       1.114      3.3313E-03
   2    9.997       8.887       7.776       6.666       5.555       4.445       3.335       2.224       1.114      3.3313E-03
   3    9.997       8.887       7.776       6.666       5.555       4.445       3.335       2.224       1.114      3.3313E-03
   4    9.997       8.887       7.776       6.666       5.555       4.445       3.335       2.224       1.114      3.3313E-03
   5    9.997       8.887       7.776       6.666       5.555       4.445       3.335       2.224       1.114      3.3313E-03
   6    9.997       8.887       7.776       6.666       5.555       4.445       3.335       2.224       1.114      3.3313E-03
   7    9.997       8.887       7.776       6.666       5.555       4.445       3.335       2.224       1.114      3.3313E-03
   8    9.997       8.887       7.776       6.666       5.555       4.445       3.335       2.224       1.114      3.3313E-03
   9    9.997       8.887       7.776       6.666       5.555       4.445       3.335       2.224       1.114      3.3313E-03
  10    9.997       8.887       7.776       6.666       5.555       4.445       3.335       2.224       1.114      3.3313E-03

 HEAD WILL BE SAVED ON UNIT   51 AT END OF TIME STEP   61, STRESS PERIOD    2

 DRAWDOWN WILL BE SAVED ON UNIT   52 AT END OF TIME STEP   61, STRESS PERIOD    2
1
  VOLUMETRIC BUDGET FOR ENTIRE MODEL AT END OF TIME STEP   61, STRESS PERIOD   2
  ------------------------------------------------------------------------------

     CUMULATIVE VOLUMES      L**3       RATES FOR THIS TIME STEP      L**3/T
     ------------------                 ------------------------

           IN:                                      IN:
           ---                                      ---
             STORAGE =       1.0477E-08               STORAGE =           0.0000
       CONSTANT HEAD =           0.0000         CONSTANT HEAD =           0.0000
               WELLS =           0.0000                 WELLS =           0.0000
     HEAD DEP BOUNDS =       41311.3203       HEAD DEP BOUNDS =         666.3123

            TOTAL IN =       41311.3203              TOTAL IN =         666.3123

          OUT:                                     OUT:
          ----                                     ----
             STORAGE =       5.2387E-08               STORAGE =           0.0000
       CONSTANT HEAD =           0.0000         CONSTANT HEAD =           0.0000
               WELLS =           0.0000                 WELLS =           0.0000
     HEAD DEP BOUNDS =       41308.0781       HEAD DEP BOUNDS =         666.2595

           TOTAL OUT =       41308.0781             TOTAL OUT =         666.2595

            IN - OUT =           3.2422              IN - OUT =       5.2795E-02

 PERCENT DISCREPANCY =           0.01     PERCENT DISCREPANCY =           0.01






         TIME SUMMARY AT END OF TIME STEP   61 IN STRESS PERIOD    2
                    SECONDS     MINUTES      HOURS       DAYS        YEARS
                    -----------------------------------------------------------
   TIME STEP LENGTH  86400.      1440.0      24.000      1.0000     2.73785E-03
 STRESS PERIOD TIME 5.27040E+06  87840.      1464.0      61.000     0.16701    
         TOTAL TIME 5.35680E+06  89280.      1488.0      62.000     0.16975    
1
 
 SOLVING FOR HEAD 

 OUTPUT CONTROL FOR STRESS PERIOD    2   TIME STEP   62
    SAVE HEAD FOR ALL LAYERS
    SAVE DRAWDOWN FOR ALL LAYERS
    SAVE BUDGET
    PRINT HEAD FOR ALL LAYERS
    PRINT BUDGET
 UBDSV1 SAVING "         STORAGE" ON UNIT  53 AT TIME STEP 62, STRESS PERIOD   2
 UBDSV2 SAVING "   CONSTANT HEAD" ON UNIT  53 AT TIME STEP 62, STRESS PERIOD   2
 UBDSV1 SAVING "FLOW RIGHT FACE " ON UNIT  53 AT TIME STEP 62, STRESS PERIOD   2
 UBDSV1 SAVING "FLOW FRONT FACE " ON UNIT  53 AT TIME STEP 62, STRESS PERIOD   2
 UBDSV1 SAVING "FLOW LOWER FACE " ON UNIT  53 AT TIME STEP 62, STRESS PERIOD   2
1
              HEAD IN LAYER   1 AT END OF TIME STEP  62 IN STRESS PERIOD    2
  ---------------------------------------------------------------------------

            1           2           3           4           5           6           7           8           9          10
 ........................................................................................................................
   1    9.997       8.887       7.776       6.666       5.555       4.445       3.335       2.224       1.114      3.3313E-03
   2    9.997       8.887       7.776       6.666       5.555       4.445       3.335       2.224       1.114      3.3313E-03
   3    9.997       8.887       7.776       6.666       5.555       4.445       3.335       2.224       1.114      3.3313E-03
   4    9.997       8.887       7.776       6.666       5.555       4.445       3.335       2.224       1.114      3.3313E-03
   5    9.997       8.887       7.776       6.666       5.555       4.445       3.335       2.224       1.114      3.3313E-03
   6    9.997       8.887       7.776       6.666       5.555       4.445       3.335       2.224       1.114      3.3313E-03
   7    9.997       8.887       7.776       6.666       5.555       4.445       3.335       2.224       1.114      3.3313E-03
   8    9.997       8.887       7.776       6.666       5.555       4.445       3.335       2.224       1.114      3.3313E-03
   9    9.997       8.887       7.776       6.666       5.555       4.445       3.335       2.224       1.114      3.3313E-03
  10    9.997       8.887       7.776       6.666       5.555       4.445       3.335       2.224       1.114      3.3313E-03
1
              HEAD IN LAYER   2 AT END OF TIME STEP  62 IN STRESS PERIOD    2
  ---------------------------------------------------------------------------

            1           2           3           4           5           6           7           8           9          10
 ........................................................................................................................
   1    9.997       8.887       7.776       6.666       5.555       4.445       3.335       2.224       1.114      3.3313E-03
   2    9.997       8.887       7.776       6.666       5.555       4.445       3.335       2.224       1.114      3.3313E-03
   3    9.997       8.887       7.776       6.666       5.555       4.445       3.335       2.224       1.114      3.3313E-03
   4    9.997       8.887       7.776       6.666       5.555       4.445       3.335       2.224       1.114      3.3313E-03
   5    9.997       8.887       7.776       6.666       5.555       4.445       3.335       2.224       1.114      3.3313E-03
   6    9.997       8.887       7.776       6.666       5.555       4.445       3.335       2.224       1.114      3.3313E-03
   7    9.997       8.887       7.776       6.666       5.555       4.445       3.335       2.224       1.114      3.3313E-03
   8    9.997       8.887       7.776       6.666       5.555       4.445       3.335       2.224       1.114      3.3313E-03
   9    9.997       8.887       7.776       6.666       5.555       4.445       3.335       2.224       1.114      3.3313E-03
  10    9.997       8.887       7.776       6.666       5.555       4.445       3.335       2.224       1.114      3.3313E-03
1
              HEAD IN LAYER   3 AT END OF TIME STEP  62 IN STRESS PERIOD    2
  ---------------------------------------------------------------------------

            1           2           3           4           5           6           7           8           9          10
 ........................................................................................................................
   1    9.997       8.887       7.776       6.666       5.555       4.445       3.335       2.224       1.114      3.3313E-03
   2    9.997       8.887       7.776       6.666       5.555       4.445       3.335       2.224       1.114      3.3313E-03
   3    9.997       8.887       7.776       6.666       5.555       4.445       3.335       2.224       1.114      3.3313E-03
   4    9.997       8.887       7.776       6.666       5.555       4.445       3.335       2.224       1.114      3.3313E-03
   5    9.997       8.887       7.776       6.666       5.555       4.445       3.335       2.224       1.114      3.3313E-03
   6    9.997       8.887       7.776       6.666       5.555       4.445       3.335       2.224       1.114      3.3313E-03
   7    9.997       8.887       7.776       6.666       5.555       4.445       3.335       2.224       1.114      3.3313E-03
   8    9.997       8.887       7.776       6.666       5.555       4.445       3.335       2.224       1.114      3.3313E-03
   9    9.997       8.887       7.776       6.666       5.555       4.445       3.335       2.224       1.114      3.3313E-03
  10    9.997       8.887       7.776       6.666       5.555       4.445       3.335       2.224       1.114      3.3313E-03
1
              HEAD IN LAYER   4 AT END OF TIME STEP  62 IN STRESS PERIOD    2
  ---------------------------------------------------------------------------

            1           2           3           4           5           6           7           8           9          10
 ........................................................................................................................
   1    9.997       8.887       7.776       6.666       5.555       4.445       3.335       2.224       1.114      3.3313E-03
   2    9.997       8.887       7.776       6.666       5.555       4.445       3.335       2.224       1.114      3.3313E-03
   3    9.997       8.887       7.776       6.666       5.555       4.445       3.335       2.224       1.114      3.3313E-03
   4    9.997       8.887       7.776       6.666       5.555       4.445       3.335       2.224       1.114      3.3313E-03
   5    9.997       8.887       7.776       6.666       5.555       4.445       3.335       2.224       1.114      3.3313E-03
   6    9.997       8.887       7.776       6.666       5.555       4.445       3.335       2.224       1.114      3.3313E-03
   7    9.997       8.887       7.776       6.666       5.555       4.445       3.335       2.224       1.114      3.3313E-03
   8    9.997       8.887       7.776       6.666       5.555       4.445       3.335       2.224       1.114      3.3313E-03
   9    9.997       8.887       7.776       6.666       5.555       4.445       3.335       2.224       1.114      3.3313E-03
  10    9.997       8.887       7.776       6.666       5.555       4.445       3.335       2.224       1.114      3.3313E-03

 HEAD WILL BE SAVED ON UNIT   51 AT END OF TIME STEP   62, STRESS PERIOD    2

 DRAWDOWN WILL BE SAVED ON UNIT   52 AT END OF TIME STEP   62, STRESS PERIOD    2
1
  VOLUMETRIC BUDGET FOR ENTIRE MODEL AT END OF TIME STEP   62, STRESS PERIOD   2
  ------------------------------------------------------------------------------

     CUMULATIVE VOLUMES      L**3       RATES FOR THIS TIME STEP      L**3/T
     ------------------                 ------------------------

           IN:                                      IN:
           ---                                      ---
             STORAGE =       1.0477E-08               STORAGE =           0.0000
       CONSTANT HEAD =           0.0000         CONSTANT HEAD =           0.0000
               WELLS =           0.0000                 WELLS =           0.0000
     HEAD DEP BOUNDS =       41977.6328       HEAD DEP BOUNDS =         666.3123

            TOTAL IN =       41977.6328              TOTAL IN =         666.3123

          OUT:                                     OUT:
          ----                                     ----
             STORAGE =       5.2387E-08               STORAGE =           0.0000
       CONSTANT HEAD =           0.0000         CONSTANT HEAD =           0.0000
               WELLS =           0.0000                 WELLS =           0.0000
     HEAD DEP BOUNDS =       41974.3359       HEAD DEP BOUNDS =         666.2595

           TOTAL OUT =       41974.3359             TOTAL OUT =         666.2595

            IN - OUT =           3.2969              IN - OUT =       5.2795E-02

 PERCENT DISCREPANCY =           0.01     PERCENT DISCREPANCY =           0.01






         TIME SUMMARY AT END OF TIME STEP   62 IN STRESS PERIOD    2
                    SECONDS     MINUTES      HOURS       DAYS        YEARS
                    -----------------------------------------------------------
   TIME STEP LENGTH  86400.      1440.0      24.000      1.0000     2.73785E-03
 STRESS PERIOD TIME 5.35680E+06  89280.      1488.0      62.000     0.16975    
         TOTAL TIME 5.44320E+06  90720.      1512.0      63.000     0.17248    
1
 
 SOLVING FOR HEAD 

 OUTPUT CONTROL FOR STRESS PERIOD    2   TIME STEP   63
    SAVE HEAD FOR ALL LAYERS
    SAVE DRAWDOWN FOR ALL LAYERS
    SAVE BUDGET
    PRINT HEAD FOR ALL LAYERS
    PRINT BUDGET
 UBDSV1 SAVING "         STORAGE" ON UNIT  53 AT TIME STEP 63, STRESS PERIOD   2
 UBDSV2 SAVING "   CONSTANT HEAD" ON UNIT  53 AT TIME STEP 63, STRESS PERIOD   2
 UBDSV1 SAVING "FLOW RIGHT FACE " ON UNIT  53 AT TIME STEP 63, STRESS PERIOD   2
 UBDSV1 SAVING "FLOW FRONT FACE " ON UNIT  53 AT TIME STEP 63, STRESS PERIOD   2
 UBDSV1 SAVING "FLOW LOWER FACE " ON UNIT  53 AT TIME STEP 63, STRESS PERIOD   2
1
              HEAD IN LAYER   1 AT END OF TIME STEP  63 IN STRESS PERIOD    2
  ---------------------------------------------------------------------------

            1           2           3           4           5           6           7           8           9          10
 ........................................................................................................................
   1    9.997       8.887       7.776       6.666       5.555       4.445       3.335       2.224       1.114      3.3313E-03
   2    9.997       8.887       7.776       6.666       5.555       4.445       3.335       2.224       1.114      3.3313E-03
   3    9.997       8.887       7.776       6.666       5.555       4.445       3.335       2.224       1.114      3.3313E-03
   4    9.997       8.887       7.776       6.666       5.555       4.445       3.335       2.224       1.114      3.3313E-03
   5    9.997       8.887       7.776       6.666       5.555       4.445       3.335       2.224       1.114      3.3313E-03
   6    9.997       8.887       7.776       6.666       5.555       4.445       3.335       2.224       1.114      3.3313E-03
   7    9.997       8.887       7.776       6.666       5.555       4.445       3.335       2.224       1.114      3.3313E-03
   8    9.997       8.887       7.776       6.666       5.555       4.445       3.335       2.224       1.114      3.3313E-03
   9    9.997       8.887       7.776       6.666       5.555       4.445       3.335       2.224       1.114      3.3313E-03
  10    9.997       8.887       7.776       6.666       5.555       4.445       3.335       2.224       1.114      3.3313E-03
1
              HEAD IN LAYER   2 AT END OF TIME STEP  63 IN STRESS PERIOD    2
  ---------------------------------------------------------------------------

            1           2           3           4           5           6           7           8           9          10
 ........................................................................................................................
   1    9.997       8.887       7.776       6.666       5.555       4.445       3.335       2.224       1.114      3.3313E-03
   2    9.997       8.887       7.776       6.666       5.555       4.445       3.335       2.224       1.114      3.3313E-03
   3    9.997       8.887       7.776       6.666       5.555       4.445       3.335       2.224       1.114      3.3313E-03
   4    9.997       8.887       7.776       6.666       5.555       4.445       3.335       2.224       1.114      3.3313E-03
   5    9.997       8.887       7.776       6.666       5.555       4.445       3.335       2.224       1.114      3.3313E-03
   6    9.997       8.887       7.776       6.666       5.555       4.445       3.335       2.224       1.114      3.3313E-03
   7    9.997       8.887       7.776       6.666       5.555       4.445       3.335       2.224       1.114      3.3313E-03
   8    9.997       8.887       7.776       6.666       5.555       4.445       3.335       2.224       1.114      3.3313E-03
   9    9.997       8.887       7.776       6.666       5.555       4.445       3.335       2.224       1.114      3.3313E-03
  10    9.997       8.887       7.776       6.666       5.555       4.445       3.335       2.224       1.114      3.3313E-03
1
              HEAD IN LAYER   3 AT END OF TIME STEP  63 IN STRESS PERIOD    2
  ---------------------------------------------------------------------------

            1           2           3           4           5           6           7           8           9          10
 ........................................................................................................................
   1    9.997       8.887       7.776       6.666       5.555       4.445       3.335       2.224       1.114      3.3313E-03
   2    9.997       8.887       7.776       6.666       5.555       4.445       3.335       2.224       1.114      3.3313E-03
   3    9.997       8.887       7.776       6.666       5.555       4.445       3.335       2.224       1.114      3.3313E-03
   4    9.997       8.887       7.776       6.666       5.555       4.445       3.335       2.224       1.114      3.3313E-03
   5    9.997       8.887       7.776       6.666       5.555       4.445       3.335       2.224       1.114      3.3313E-03
   6    9.997       8.887       7.776       6.666       5.555       4.445       3.335       2.224       1.114      3.3313E-03
   7    9.997       8.887       7.776       6.666       5.555       4.445       3.335       2.224       1.114      3.3313E-03
   8    9.997       8.887       7.776       6.666       5.555       4.445       3.335       2.224       1.114      3.3313E-03
   9    9.997       8.887       7.776       6.666       5.555       4.445       3.335       2.224       1.114      3.3313E-03
  10    9.997       8.887       7.776       6.666       5.555       4.445       3.335       2.224       1.114      3.3313E-03
1
              HEAD IN LAYER   4 AT END OF TIME STEP  63 IN STRESS PERIOD    2
  ---------------------------------------------------------------------------

            1           2           3           4           5           6           7           8           9          10
 ........................................................................................................................
   1    9.997       8.887       7.776       6.666       5.555       4.445       3.335       2.224       1.114      3.3313E-03
   2    9.997       8.887       7.776       6.666       5.555       4.445       3.335       2.224       1.114      3.3313E-03
   3    9.997       8.887       7.776       6.666       5.555       4.445       3.335       2.224       1.114      3.3313E-03
   4    9.997       8.887       7.776       6.666       5.555       4.445       3.335       2.224       1.114      3.3313E-03
   5    9.997       8.887       7.776       6.666       5.555       4.445       3.335       2.224       1.114      3.3313E-03
   6    9.997       8.887       7.776       6.666       5.555       4.445       3.335       2.224       1.114      3.3313E-03
   7    9.997       8.887       7.776       6.666       5.555       4.445       3.335       2.224       1.114      3.3313E-03
   8    9.997       8.887       7.776       6.666       5.555       4.445       3.335       2.224       1.114      3.3313E-03
   9    9.997       8.887       7.776       6.666       5.555       4.445       3.335       2.224       1.114      3.3313E-03
  10    9.997       8.887       7.776       6.666       5.555       4.445       3.335       2.224       1.114      3.3313E-03

 HEAD WILL BE SAVED ON UNIT   51 AT END OF TIME STEP   63, STRESS PERIOD    2

 DRAWDOWN WILL BE SAVED ON UNIT   52 AT END OF TIME STEP   63, STRESS PERIOD    2
1
  VOLUMETRIC BUDGET FOR ENTIRE MODEL AT END OF TIME STEP   63, STRESS PERIOD   2
  ------------------------------------------------------------------------------

     CUMULATIVE VOLUMES      L**3       RATES FOR THIS TIME STEP      L**3/T
     ------------------                 ------------------------

           IN:                                      IN:
           ---                                      ---
             STORAGE =       1.0477E-08               STORAGE =           0.0000
       CONSTANT HEAD =           0.0000         CONSTANT HEAD =           0.0000
               WELLS =           0.0000                 WELLS =           0.0000
     HEAD DEP BOUNDS =       42643.9453       HEAD DEP BOUNDS =         666.3123

            TOTAL IN =       42643.9453              TOTAL IN =         666.3123

          OUT:                                     OUT:
          ----                                     ----
             STORAGE =       5.2387E-08               STORAGE =           0.0000
       CONSTANT HEAD =           0.0000         CONSTANT HEAD =           0.0000
               WELLS =           0.0000                 WELLS =           0.0000
     HEAD DEP BOUNDS =       42640.5938       HEAD DEP BOUNDS =         666.2595

           TOTAL OUT =       42640.5938             TOTAL OUT =         666.2595

            IN - OUT =           3.3516              IN - OUT =       5.2795E-02

 PERCENT DISCREPANCY =           0.01     PERCENT DISCREPANCY =           0.01






         TIME SUMMARY AT END OF TIME STEP   63 IN STRESS PERIOD    2
                    SECONDS     MINUTES      HOURS       DAYS        YEARS
                    -----------------------------------------------------------
   TIME STEP LENGTH  86400.      1440.0      24.000      1.0000     2.73785E-03
 STRESS PERIOD TIME 5.44320E+06  90720.      1512.0      63.000     0.17248    
         TOTAL TIME 5.52960E+06  92160.      1536.0      64.000     0.17522    
1
 
 SOLVING FOR HEAD 

 OUTPUT CONTROL FOR STRESS PERIOD    2   TIME STEP   64
    SAVE HEAD FOR ALL LAYERS
    SAVE DRAWDOWN FOR ALL LAYERS
    SAVE BUDGET
    PRINT HEAD FOR ALL LAYERS
    PRINT BUDGET
 UBDSV1 SAVING "         STORAGE" ON UNIT  53 AT TIME STEP 64, STRESS PERIOD   2
 UBDSV2 SAVING "   CONSTANT HEAD" ON UNIT  53 AT TIME STEP 64, STRESS PERIOD   2
 UBDSV1 SAVING "FLOW RIGHT FACE " ON UNIT  53 AT TIME STEP 64, STRESS PERIOD   2
 UBDSV1 SAVING "FLOW FRONT FACE " ON UNIT  53 AT TIME STEP 64, STRESS PERIOD   2
 UBDSV1 SAVING "FLOW LOWER FACE " ON UNIT  53 AT TIME STEP 64, STRESS PERIOD   2
1
              HEAD IN LAYER   1 AT END OF TIME STEP  64 IN STRESS PERIOD    2
  ---------------------------------------------------------------------------

            1           2           3           4           5           6           7           8           9          10
 ........................................................................................................................
   1    9.997       8.887       7.776       6.666       5.555       4.445       3.335       2.224       1.114      3.3313E-03
   2    9.997       8.887       7.776       6.666       5.555       4.445       3.335       2.224       1.114      3.3313E-03
   3    9.997       8.887       7.776       6.666       5.555       4.445       3.335       2.224       1.114      3.3313E-03
   4    9.997       8.887       7.776       6.666       5.555       4.445       3.335       2.224       1.114      3.3313E-03
   5    9.997       8.887       7.776       6.666       5.555       4.445       3.335       2.224       1.114      3.3313E-03
   6    9.997       8.887       7.776       6.666       5.555       4.445       3.335       2.224       1.114      3.3313E-03
   7    9.997       8.887       7.776       6.666       5.555       4.445       3.335       2.224       1.114      3.3313E-03
   8    9.997       8.887       7.776       6.666       5.555       4.445       3.335       2.224       1.114      3.3313E-03
   9    9.997       8.887       7.776       6.666       5.555       4.445       3.335       2.224       1.114      3.3313E-03
  10    9.997       8.887       7.776       6.666       5.555       4.445       3.335       2.224       1.114      3.3313E-03
1
              HEAD IN LAYER   2 AT END OF TIME STEP  64 IN STRESS PERIOD    2
  ---------------------------------------------------------------------------

            1           2           3           4           5           6           7           8           9          10
 ........................................................................................................................
   1    9.997       8.887       7.776       6.666       5.555       4.445       3.335       2.224       1.114      3.3313E-03
   2    9.997       8.887       7.776       6.666       5.555       4.445       3.335       2.224       1.114      3.3313E-03
   3    9.997       8.887       7.776       6.666       5.555       4.445       3.335       2.224       1.114      3.3313E-03
   4    9.997       8.887       7.776       6.666       5.555       4.445       3.335       2.224       1.114      3.3313E-03
   5    9.997       8.887       7.776       6.666       5.555       4.445       3.335       2.224       1.114      3.3313E-03
   6    9.997       8.887       7.776       6.666       5.555       4.445       3.335       2.224       1.114      3.3313E-03
   7    9.997       8.887       7.776       6.666       5.555       4.445       3.335       2.224       1.114      3.3313E-03
   8    9.997       8.887       7.776       6.666       5.555       4.445       3.335       2.224       1.114      3.3313E-03
   9    9.997       8.887       7.776       6.666       5.555       4.445       3.335       2.224       1.114      3.3313E-03
  10    9.997       8.887       7.776       6.666       5.555       4.445       3.335       2.224       1.114      3.3313E-03
1
              HEAD IN LAYER   3 AT END OF TIME STEP  64 IN STRESS PERIOD    2
  ---------------------------------------------------------------------------

            1           2           3           4           5           6           7           8           9          10
 ........................................................................................................................
   1    9.997       8.887       7.776       6.666       5.555       4.445       3.335       2.224       1.114      3.3313E-03
   2    9.997       8.887       7.776       6.666       5.555       4.445       3.335       2.224       1.114      3.3313E-03
   3    9.997       8.887       7.776       6.666       5.555       4.445       3.335       2.224       1.114      3.3313E-03
   4    9.997       8.887       7.776       6.666       5.555       4.445       3.335       2.224       1.114      3.3313E-03
   5    9.997       8.887       7.776       6.666       5.555       4.445       3.335       2.224       1.114      3.3313E-03
   6    9.997       8.887       7.776       6.666       5.555       4.445       3.335       2.224       1.114      3.3313E-03
   7    9.997       8.887       7.776       6.666       5.555       4.445       3.335       2.224       1.114      3.3313E-03
   8    9.997       8.887       7.776       6.666       5.555       4.445       3.335       2.224       1.114      3.3313E-03
   9    9.997       8.887       7.776       6.666       5.555       4.445       3.335       2.224       1.114      3.3313E-03
  10    9.997       8.887       7.776       6.666       5.555       4.445       3.335       2.224       1.114      3.3313E-03
1
              HEAD IN LAYER   4 AT END OF TIME STEP  64 IN STRESS PERIOD    2
  ---------------------------------------------------------------------------

            1           2           3           4           5           6           7           8           9          10
 ........................................................................................................................
   1    9.997       8.887       7.776       6.666       5.555       4.445       3.335       2.224       1.114      3.3313E-03
   2    9.997       8.887       7.776       6.666       5.555       4.445       3.335       2.224       1.114      3.3313E-03
   3    9.997       8.887       7.776       6.666       5.555       4.445       3.335       2.224       1.114      3.3313E-03
   4    9.997       8.887       7.776       6.666       5.555       4.445       3.335       2.224       1.114      3.3313E-03
   5    9.997       8.887       7.776       6.666       5.555       4.445       3.335       2.224       1.114      3.3313E-03
   6    9.997       8.887       7.776       6.666       5.555       4.445       3.335       2.224       1.114      3.3313E-03
   7    9.997       8.887       7.776       6.666       5.555       4.445       3.335       2.224       1.114      3.3313E-03
   8    9.997       8.887       7.776       6.666       5.555       4.445       3.335       2.224       1.114      3.3313E-03
   9    9.997       8.887       7.776       6.666       5.555       4.445       3.335       2.224       1.114      3.3313E-03
  10    9.997       8.887       7.776       6.666       5.555       4.445       3.335       2.224       1.114      3.3313E-03

 HEAD WILL BE SAVED ON UNIT   51 AT END OF TIME STEP   64, STRESS PERIOD    2

 DRAWDOWN WILL BE SAVED ON UNIT   52 AT END OF TIME STEP   64, STRESS PERIOD    2
1
  VOLUMETRIC BUDGET FOR ENTIRE MODEL AT END OF TIME STEP   64, STRESS PERIOD   2
  ------------------------------------------------------------------------------

     CUMULATIVE VOLUMES      L**3       RATES FOR THIS TIME STEP      L**3/T
     ------------------                 ------------------------

           IN:                                      IN:
           ---                                      ---
             STORAGE =       1.0477E-08               STORAGE =           0.0000
       CONSTANT HEAD =           0.0000         CONSTANT HEAD =           0.0000
               WELLS =           0.0000                 WELLS =           0.0000
     HEAD DEP BOUNDS =       43310.2578       HEAD DEP BOUNDS =         666.3123

            TOTAL IN =       43310.2578              TOTAL IN =         666.3123

          OUT:                                     OUT:
          ----                                     ----
             STORAGE =       5.2387E-08               STORAGE =           0.0000
       CONSTANT HEAD =           0.0000         CONSTANT HEAD =           0.0000
               WELLS =           0.0000                 WELLS =           0.0000
     HEAD DEP BOUNDS =       43306.8516       HEAD DEP BOUNDS =         666.2595

           TOTAL OUT =       43306.8516             TOTAL OUT =         666.2595

            IN - OUT =           3.4062              IN - OUT =       5.2795E-02

 PERCENT DISCREPANCY =           0.01     PERCENT DISCREPANCY =           0.01






         TIME SUMMARY AT END OF TIME STEP   64 IN STRESS PERIOD    2
                    SECONDS     MINUTES      HOURS       DAYS        YEARS
                    -----------------------------------------------------------
   TIME STEP LENGTH  86400.      1440.0      24.000      1.0000     2.73785E-03
 STRESS PERIOD TIME 5.52960E+06  92160.      1536.0      64.000     0.17522    
         TOTAL TIME 5.61600E+06  93600.      1560.0      65.000     0.17796    
1
 
 SOLVING FOR HEAD 

 OUTPUT CONTROL FOR STRESS PERIOD    2   TIME STEP   65
    SAVE HEAD FOR ALL LAYERS
    SAVE DRAWDOWN FOR ALL LAYERS
    SAVE BUDGET
    PRINT HEAD FOR ALL LAYERS
    PRINT BUDGET
 UBDSV1 SAVING "         STORAGE" ON UNIT  53 AT TIME STEP 65, STRESS PERIOD   2
 UBDSV2 SAVING "   CONSTANT HEAD" ON UNIT  53 AT TIME STEP 65, STRESS PERIOD   2
 UBDSV1 SAVING "FLOW RIGHT FACE " ON UNIT  53 AT TIME STEP 65, STRESS PERIOD   2
 UBDSV1 SAVING "FLOW FRONT FACE " ON UNIT  53 AT TIME STEP 65, STRESS PERIOD   2
 UBDSV1 SAVING "FLOW LOWER FACE " ON UNIT  53 AT TIME STEP 65, STRESS PERIOD   2
1
              HEAD IN LAYER   1 AT END OF TIME STEP  65 IN STRESS PERIOD    2
  ---------------------------------------------------------------------------

            1           2           3           4           5           6           7           8           9          10
 ........................................................................................................................
   1    9.997       8.887       7.776       6.666       5.555       4.445       3.335       2.224       1.114      3.3313E-03
   2    9.997       8.887       7.776       6.666       5.555       4.445       3.335       2.224       1.114      3.3313E-03
   3    9.997       8.887       7.776       6.666       5.555       4.445       3.335       2.224       1.114      3.3313E-03
   4    9.997       8.887       7.776       6.666       5.555       4.445       3.335       2.224       1.114      3.3313E-03
   5    9.997       8.887       7.776       6.666       5.555       4.445       3.335       2.224       1.114      3.3313E-03
   6    9.997       8.887       7.776       6.666       5.555       4.445       3.335       2.224       1.114      3.3313E-03
   7    9.997       8.887       7.776       6.666       5.555       4.445       3.335       2.224       1.114      3.3313E-03
   8    9.997       8.887       7.776       6.666       5.555       4.445       3.335       2.224       1.114      3.3313E-03
   9    9.997       8.887       7.776       6.666       5.555       4.445       3.335       2.224       1.114      3.3313E-03
  10    9.997       8.887       7.776       6.666       5.555       4.445       3.335       2.224       1.114      3.3313E-03
1
              HEAD IN LAYER   2 AT END OF TIME STEP  65 IN STRESS PERIOD    2
  ---------------------------------------------------------------------------

            1           2           3           4           5           6           7           8           9          10
 ........................................................................................................................
   1    9.997       8.887       7.776       6.666       5.555       4.445       3.335       2.224       1.114      3.3313E-03
   2    9.997       8.887       7.776       6.666       5.555       4.445       3.335       2.224       1.114      3.3313E-03
   3    9.997       8.887       7.776       6.666       5.555       4.445       3.335       2.224       1.114      3.3313E-03
   4    9.997       8.887       7.776       6.666       5.555       4.445       3.335       2.224       1.114      3.3313E-03
   5    9.997       8.887       7.776       6.666       5.555       4.445       3.335       2.224       1.114      3.3313E-03
   6    9.997       8.887       7.776       6.666       5.555       4.445       3.335       2.224       1.114      3.3313E-03
   7    9.997       8.887       7.776       6.666       5.555       4.445       3.335       2.224       1.114      3.3313E-03
   8    9.997       8.887       7.776       6.666       5.555       4.445       3.335       2.224       1.114      3.3313E-03
   9    9.997       8.887       7.776       6.666       5.555       4.445       3.335       2.224       1.114      3.3313E-03
  10    9.997       8.887       7.776       6.666       5.555       4.445       3.335       2.224       1.114      3.3313E-03
1
              HEAD IN LAYER   3 AT END OF TIME STEP  65 IN STRESS PERIOD    2
  ---------------------------------------------------------------------------

            1           2           3           4           5           6           7           8           9          10
 ........................................................................................................................
   1    9.997       8.887       7.776       6.666       5.555       4.445       3.335       2.224       1.114      3.3313E-03
   2    9.997       8.887       7.776       6.666       5.555       4.445       3.335       2.224       1.114      3.3313E-03
   3    9.997       8.887       7.776       6.666       5.555       4.445       3.335       2.224       1.114      3.3313E-03
   4    9.997       8.887       7.776       6.666       5.555       4.445       3.335       2.224       1.114      3.3313E-03
   5    9.997       8.887       7.776       6.666       5.555       4.445       3.335       2.224       1.114      3.3313E-03
   6    9.997       8.887       7.776       6.666       5.555       4.445       3.335       2.224       1.114      3.3313E-03
   7    9.997       8.887       7.776       6.666       5.555       4.445       3.335       2.224       1.114      3.3313E-03
   8    9.997       8.887       7.776       6.666       5.555       4.445       3.335       2.224       1.114      3.3313E-03
   9    9.997       8.887       7.776       6.666       5.555       4.445       3.335       2.224       1.114      3.3313E-03
  10    9.997       8.887       7.776       6.666       5.555       4.445       3.335       2.224       1.114      3.3313E-03
1
              HEAD IN LAYER   4 AT END OF TIME STEP  65 IN STRESS PERIOD    2
  ---------------------------------------------------------------------------

            1           2           3           4           5           6           7           8           9          10
 ........................................................................................................................
   1    9.997       8.887       7.776       6.666       5.555       4.445       3.335       2.224       1.114      3.3313E-03
   2    9.997       8.887       7.776       6.666       5.555       4.445       3.335       2.224       1.114      3.3313E-03
   3    9.997       8.887       7.776       6.666       5.555       4.445       3.335       2.224       1.114      3.3313E-03
   4    9.997       8.887       7.776       6.666       5.555       4.445       3.335       2.224       1.114      3.3313E-03
   5    9.997       8.887       7.776       6.666       5.555       4.445       3.335       2.224       1.114      3.3313E-03
   6    9.997       8.887       7.776       6.666       5.555       4.445       3.335       2.224       1.114      3.3313E-03
   7    9.997       8.887       7.776       6.666       5.555       4.445       3.335       2.224       1.114      3.3313E-03
   8    9.997       8.887       7.776       6.666       5.555       4.445       3.335       2.224       1.114      3.3313E-03
   9    9.997       8.887       7.776       6.666       5.555       4.445       3.335       2.224       1.114      3.3313E-03
  10    9.997       8.887       7.776       6.666       5.555       4.445       3.335       2.224       1.114      3.3313E-03

 HEAD WILL BE SAVED ON UNIT   51 AT END OF TIME STEP   65, STRESS PERIOD    2

 DRAWDOWN WILL BE SAVED ON UNIT   52 AT END OF TIME STEP   65, STRESS PERIOD    2
1
  VOLUMETRIC BUDGET FOR ENTIRE MODEL AT END OF TIME STEP   65, STRESS PERIOD   2
  ------------------------------------------------------------------------------

     CUMULATIVE VOLUMES      L**3       RATES FOR THIS TIME STEP      L**3/T
     ------------------                 ------------------------

           IN:                                      IN:
           ---                                      ---
             STORAGE =       1.0477E-08               STORAGE =           0.0000
       CONSTANT HEAD =           0.0000         CONSTANT HEAD =           0.0000
               WELLS =           0.0000                 WELLS =           0.0000
     HEAD DEP BOUNDS =       43976.5703       HEAD DEP BOUNDS =         666.3123

            TOTAL IN =       43976.5703              TOTAL IN =         666.3123

          OUT:                                     OUT:
          ----                                     ----
             STORAGE =       5.2387E-08               STORAGE =           0.0000
       CONSTANT HEAD =           0.0000         CONSTANT HEAD =           0.0000
               WELLS =           0.0000                 WELLS =           0.0000
     HEAD DEP BOUNDS =       43973.1094       HEAD DEP BOUNDS =         666.2595

           TOTAL OUT =       43973.1094             TOTAL OUT =         666.2595

            IN - OUT =           3.4609              IN - OUT =       5.2795E-02

 PERCENT DISCREPANCY =           0.01     PERCENT DISCREPANCY =           0.01






         TIME SUMMARY AT END OF TIME STEP   65 IN STRESS PERIOD    2
                    SECONDS     MINUTES      HOURS       DAYS        YEARS
                    -----------------------------------------------------------
   TIME STEP LENGTH  86400.      1440.0      24.000      1.0000     2.73785E-03
 STRESS PERIOD TIME 5.61600E+06  93600.      1560.0      65.000     0.17796    
         TOTAL TIME 5.70240E+06  95040.      1584.0      66.000     0.18070    
1
 
 SOLVING FOR HEAD 

 OUTPUT CONTROL FOR STRESS PERIOD    2   TIME STEP   66
    SAVE HEAD FOR ALL LAYERS
    SAVE DRAWDOWN FOR ALL LAYERS
    SAVE BUDGET
    PRINT HEAD FOR ALL LAYERS
    PRINT BUDGET
 UBDSV1 SAVING "         STORAGE" ON UNIT  53 AT TIME STEP 66, STRESS PERIOD   2
 UBDSV2 SAVING "   CONSTANT HEAD" ON UNIT  53 AT TIME STEP 66, STRESS PERIOD   2
 UBDSV1 SAVING "FLOW RIGHT FACE " ON UNIT  53 AT TIME STEP 66, STRESS PERIOD   2
 UBDSV1 SAVING "FLOW FRONT FACE " ON UNIT  53 AT TIME STEP 66, STRESS PERIOD   2
 UBDSV1 SAVING "FLOW LOWER FACE " ON UNIT  53 AT TIME STEP 66, STRESS PERIOD   2
1
              HEAD IN LAYER   1 AT END OF TIME STEP  66 IN STRESS PERIOD    2
  ---------------------------------------------------------------------------

            1           2           3           4           5           6           7           8           9          10
 ........................................................................................................................
   1    9.997       8.887       7.776       6.666       5.555       4.445       3.335       2.224       1.114      3.3313E-03
   2    9.997       8.887       7.776       6.666       5.555       4.445       3.335       2.224       1.114      3.3313E-03
   3    9.997       8.887       7.776       6.666       5.555       4.445       3.335       2.224       1.114      3.3313E-03
   4    9.997       8.887       7.776       6.666       5.555       4.445       3.335       2.224       1.114      3.3313E-03
   5    9.997       8.887       7.776       6.666       5.555       4.445       3.335       2.224       1.114      3.3313E-03
   6    9.997       8.887       7.776       6.666       5.555       4.445       3.335       2.224       1.114      3.3313E-03
   7    9.997       8.887       7.776       6.666       5.555       4.445       3.335       2.224       1.114      3.3313E-03
   8    9.997       8.887       7.776       6.666       5.555       4.445       3.335       2.224       1.114      3.3313E-03
   9    9.997       8.887       7.776       6.666       5.555       4.445       3.335       2.224       1.114      3.3313E-03
  10    9.997       8.887       7.776       6.666       5.555       4.445       3.335       2.224       1.114      3.3313E-03
1
              HEAD IN LAYER   2 AT END OF TIME STEP  66 IN STRESS PERIOD    2
  ---------------------------------------------------------------------------

            1           2           3           4           5           6           7           8           9          10
 ........................................................................................................................
   1    9.997       8.887       7.776       6.666       5.555       4.445       3.335       2.224       1.114      3.3313E-03
   2    9.997       8.887       7.776       6.666       5.555       4.445       3.335       2.224       1.114      3.3313E-03
   3    9.997       8.887       7.776       6.666       5.555       4.445       3.335       2.224       1.114      3.3313E-03
   4    9.997       8.887       7.776       6.666       5.555       4.445       3.335       2.224       1.114      3.3313E-03
   5    9.997       8.887       7.776       6.666       5.555       4.445       3.335       2.224       1.114      3.3313E-03
   6    9.997       8.887       7.776       6.666       5.555       4.445       3.335       2.224       1.114      3.3313E-03
   7    9.997       8.887       7.776       6.666       5.555       4.445       3.335       2.224       1.114      3.3313E-03
   8    9.997       8.887       7.776       6.666       5.555       4.445       3.335       2.224       1.114      3.3313E-03
   9    9.997       8.887       7.776       6.666       5.555       4.445       3.335       2.224       1.114      3.3313E-03
  10    9.997       8.887       7.776       6.666       5.555       4.445       3.335       2.224       1.114      3.3313E-03
1
              HEAD IN LAYER   3 AT END OF TIME STEP  66 IN STRESS PERIOD    2
  ---------------------------------------------------------------------------

            1           2           3           4           5           6           7           8           9          10
 ........................................................................................................................
   1    9.997       8.887       7.776       6.666       5.555       4.445       3.335       2.224       1.114      3.3313E-03
   2    9.997       8.887       7.776       6.666       5.555       4.445       3.335       2.224       1.114      3.3313E-03
   3    9.997       8.887       7.776       6.666       5.555       4.445       3.335       2.224       1.114      3.3313E-03
   4    9.997       8.887       7.776       6.666       5.555       4.445       3.335       2.224       1.114      3.3313E-03
   5    9.997       8.887       7.776       6.666       5.555       4.445       3.335       2.224       1.114      3.3313E-03
   6    9.997       8.887       7.776       6.666       5.555       4.445       3.335       2.224       1.114      3.3313E-03
   7    9.997       8.887       7.776       6.666       5.555       4.445       3.335       2.224       1.114      3.3313E-03
   8    9.997       8.887       7.776       6.666       5.555       4.445       3.335       2.224       1.114      3.3313E-03
   9    9.997       8.887       7.776       6.666       5.555       4.445       3.335       2.224       1.114      3.3313E-03
  10    9.997       8.887       7.776       6.666       5.555       4.445       3.335       2.224       1.114      3.3313E-03
1
              HEAD IN LAYER   4 AT END OF TIME STEP  66 IN STRESS PERIOD    2
  ---------------------------------------------------------------------------

            1           2           3           4           5           6           7           8           9          10
 ........................................................................................................................
   1    9.997       8.887       7.776       6.666       5.555       4.445       3.335       2.224       1.114      3.3313E-03
   2    9.997       8.887       7.776       6.666       5.555       4.445       3.335       2.224       1.114      3.3313E-03
   3    9.997       8.887       7.776       6.666       5.555       4.445       3.335       2.224       1.114      3.3313E-03
   4    9.997       8.887       7.776       6.666       5.555       4.445       3.335       2.224       1.114      3.3313E-03
   5    9.997       8.887       7.776       6.666       5.555       4.445       3.335       2.224       1.114      3.3313E-03
   6    9.997       8.887       7.776       6.666       5.555       4.445       3.335       2.224       1.114      3.3313E-03
   7    9.997       8.887       7.776       6.666       5.555       4.445       3.335       2.224       1.114      3.3313E-03
   8    9.997       8.887       7.776       6.666       5.555       4.445       3.335       2.224       1.114      3.3313E-03
   9    9.997       8.887       7.776       6.666       5.555       4.445       3.335       2.224       1.114      3.3313E-03
  10    9.997       8.887       7.776       6.666       5.555       4.445       3.335       2.224       1.114      3.3313E-03

 HEAD WILL BE SAVED ON UNIT   51 AT END OF TIME STEP   66, STRESS PERIOD    2

 DRAWDOWN WILL BE SAVED ON UNIT   52 AT END OF TIME STEP   66, STRESS PERIOD    2
1
  VOLUMETRIC BUDGET FOR ENTIRE MODEL AT END OF TIME STEP   66, STRESS PERIOD   2
  ------------------------------------------------------------------------------

     CUMULATIVE VOLUMES      L**3       RATES FOR THIS TIME STEP      L**3/T
     ------------------                 ------------------------

           IN:                                      IN:
           ---                                      ---
             STORAGE =       1.0477E-08               STORAGE =           0.0000
       CONSTANT HEAD =           0.0000         CONSTANT HEAD =           0.0000
               WELLS =           0.0000                 WELLS =           0.0000
     HEAD DEP BOUNDS =       44642.8828       HEAD DEP BOUNDS =         666.3123

            TOTAL IN =       44642.8828              TOTAL IN =         666.3123

          OUT:                                     OUT:
          ----                                     ----
             STORAGE =       5.2387E-08               STORAGE =           0.0000
       CONSTANT HEAD =           0.0000         CONSTANT HEAD =           0.0000
               WELLS =           0.0000                 WELLS =           0.0000
     HEAD DEP BOUNDS =       44639.3672       HEAD DEP BOUNDS =         666.2595

           TOTAL OUT =       44639.3672             TOTAL OUT =         666.2595

            IN - OUT =           3.5156              IN - OUT =       5.2795E-02

 PERCENT DISCREPANCY =           0.01     PERCENT DISCREPANCY =           0.01






         TIME SUMMARY AT END OF TIME STEP   66 IN STRESS PERIOD    2
                    SECONDS     MINUTES      HOURS       DAYS        YEARS
                    -----------------------------------------------------------
   TIME STEP LENGTH  86400.      1440.0      24.000      1.0000     2.73785E-03
 STRESS PERIOD TIME 5.70240E+06  95040.      1584.0      66.000     0.18070    
         TOTAL TIME 5.78880E+06  96480.      1608.0      67.000     0.18344    
1
 
 SOLVING FOR HEAD 

 OUTPUT CONTROL FOR STRESS PERIOD    2   TIME STEP   67
    SAVE HEAD FOR ALL LAYERS
    SAVE DRAWDOWN FOR ALL LAYERS
    SAVE BUDGET
    PRINT HEAD FOR ALL LAYERS
    PRINT BUDGET
 UBDSV1 SAVING "         STORAGE" ON UNIT  53 AT TIME STEP 67, STRESS PERIOD   2
 UBDSV2 SAVING "   CONSTANT HEAD" ON UNIT  53 AT TIME STEP 67, STRESS PERIOD   2
 UBDSV1 SAVING "FLOW RIGHT FACE " ON UNIT  53 AT TIME STEP 67, STRESS PERIOD   2
 UBDSV1 SAVING "FLOW FRONT FACE " ON UNIT  53 AT TIME STEP 67, STRESS PERIOD   2
 UBDSV1 SAVING "FLOW LOWER FACE " ON UNIT  53 AT TIME STEP 67, STRESS PERIOD   2
1
              HEAD IN LAYER   1 AT END OF TIME STEP  67 IN STRESS PERIOD    2
  ---------------------------------------------------------------------------

            1           2           3           4           5           6           7           8           9          10
 ........................................................................................................................
   1    9.997       8.887       7.776       6.666       5.555       4.445       3.335       2.224       1.114      3.3313E-03
   2    9.997       8.887       7.776       6.666       5.555       4.445       3.335       2.224       1.114      3.3313E-03
   3    9.997       8.887       7.776       6.666       5.555       4.445       3.335       2.224       1.114      3.3313E-03
   4    9.997       8.887       7.776       6.666       5.555       4.445       3.335       2.224       1.114      3.3313E-03
   5    9.997       8.887       7.776       6.666       5.555       4.445       3.335       2.224       1.114      3.3313E-03
   6    9.997       8.887       7.776       6.666       5.555       4.445       3.335       2.224       1.114      3.3313E-03
   7    9.997       8.887       7.776       6.666       5.555       4.445       3.335       2.224       1.114      3.3313E-03
   8    9.997       8.887       7.776       6.666       5.555       4.445       3.335       2.224       1.114      3.3313E-03
   9    9.997       8.887       7.776       6.666       5.555       4.445       3.335       2.224       1.114      3.3313E-03
  10    9.997       8.887       7.776       6.666       5.555       4.445       3.335       2.224       1.114      3.3313E-03
1
              HEAD IN LAYER   2 AT END OF TIME STEP  67 IN STRESS PERIOD    2
  ---------------------------------------------------------------------------

            1           2           3           4           5           6           7           8           9          10
 ........................................................................................................................
   1    9.997       8.887       7.776       6.666       5.555       4.445       3.335       2.224       1.114      3.3313E-03
   2    9.997       8.887       7.776       6.666       5.555       4.445       3.335       2.224       1.114      3.3313E-03
   3    9.997       8.887       7.776       6.666       5.555       4.445       3.335       2.224       1.114      3.3313E-03
   4    9.997       8.887       7.776       6.666       5.555       4.445       3.335       2.224       1.114      3.3313E-03
   5    9.997       8.887       7.776       6.666       5.555       4.445       3.335       2.224       1.114      3.3313E-03
   6    9.997       8.887       7.776       6.666       5.555       4.445       3.335       2.224       1.114      3.3313E-03
   7    9.997       8.887       7.776       6.666       5.555       4.445       3.335       2.224       1.114      3.3313E-03
   8    9.997       8.887       7.776       6.666       5.555       4.445       3.335       2.224       1.114      3.3313E-03
   9    9.997       8.887       7.776       6.666       5.555       4.445       3.335       2.224       1.114      3.3313E-03
  10    9.997       8.887       7.776       6.666       5.555       4.445       3.335       2.224       1.114      3.3313E-03
1
              HEAD IN LAYER   3 AT END OF TIME STEP  67 IN STRESS PERIOD    2
  ---------------------------------------------------------------------------

            1           2           3           4           5           6           7           8           9          10
 ........................................................................................................................
   1    9.997       8.887       7.776       6.666       5.555       4.445       3.335       2.224       1.114      3.3313E-03
   2    9.997       8.887       7.776       6.666       5.555       4.445       3.335       2.224       1.114      3.3313E-03
   3    9.997       8.887       7.776       6.666       5.555       4.445       3.335       2.224       1.114      3.3313E-03
   4    9.997       8.887       7.776       6.666       5.555       4.445       3.335       2.224       1.114      3.3313E-03
   5    9.997       8.887       7.776       6.666       5.555       4.445       3.335       2.224       1.114      3.3313E-03
   6    9.997       8.887       7.776       6.666       5.555       4.445       3.335       2.224       1.114      3.3313E-03
   7    9.997       8.887       7.776       6.666       5.555       4.445       3.335       2.224       1.114      3.3313E-03
   8    9.997       8.887       7.776       6.666       5.555       4.445       3.335       2.224       1.114      3.3313E-03
   9    9.997       8.887       7.776       6.666       5.555       4.445       3.335       2.224       1.114      3.3313E-03
  10    9.997       8.887       7.776       6.666       5.555       4.445       3.335       2.224       1.114      3.3313E-03
1
              HEAD IN LAYER   4 AT END OF TIME STEP  67 IN STRESS PERIOD    2
  ---------------------------------------------------------------------------

            1           2           3           4           5           6           7           8           9          10
 ........................................................................................................................
   1    9.997       8.887       7.776       6.666       5.555       4.445       3.335       2.224       1.114      3.3313E-03
   2    9.997       8.887       7.776       6.666       5.555       4.445       3.335       2.224       1.114      3.3313E-03
   3    9.997       8.887       7.776       6.666       5.555       4.445       3.335       2.224       1.114      3.3313E-03
   4    9.997       8.887       7.776       6.666       5.555       4.445       3.335       2.224       1.114      3.3313E-03
   5    9.997       8.887       7.776       6.666       5.555       4.445       3.335       2.224       1.114      3.3313E-03
   6    9.997       8.887       7.776       6.666       5.555       4.445       3.335       2.224       1.114      3.3313E-03
   7    9.997       8.887       7.776       6.666       5.555       4.445       3.335       2.224       1.114      3.3313E-03
   8    9.997       8.887       7.776       6.666       5.555       4.445       3.335       2.224       1.114      3.3313E-03
   9    9.997       8.887       7.776       6.666       5.555       4.445       3.335       2.224       1.114      3.3313E-03
  10    9.997       8.887       7.776       6.666       5.555       4.445       3.335       2.224       1.114      3.3313E-03

 HEAD WILL BE SAVED ON UNIT   51 AT END OF TIME STEP   67, STRESS PERIOD    2

 DRAWDOWN WILL BE SAVED ON UNIT   52 AT END OF TIME STEP   67, STRESS PERIOD    2
1
  VOLUMETRIC BUDGET FOR ENTIRE MODEL AT END OF TIME STEP   67, STRESS PERIOD   2
  ------------------------------------------------------------------------------

     CUMULATIVE VOLUMES      L**3       RATES FOR THIS TIME STEP      L**3/T
     ------------------                 ------------------------

           IN:                                      IN:
           ---                                      ---
             STORAGE =       1.0477E-08               STORAGE =           0.0000
       CONSTANT HEAD =           0.0000         CONSTANT HEAD =           0.0000
               WELLS =           0.0000                 WELLS =           0.0000
     HEAD DEP BOUNDS =       45309.1953       HEAD DEP BOUNDS =         666.3123

            TOTAL IN =       45309.1953              TOTAL IN =         666.3123

          OUT:                                     OUT:
          ----                                     ----
             STORAGE =       5.2387E-08               STORAGE =           0.0000
       CONSTANT HEAD =           0.0000         CONSTANT HEAD =           0.0000
               WELLS =           0.0000                 WELLS =           0.0000
     HEAD DEP BOUNDS =       45305.6250       HEAD DEP BOUNDS =         666.2595

           TOTAL OUT =       45305.6250             TOTAL OUT =         666.2595

            IN - OUT =           3.5703              IN - OUT =       5.2795E-02

 PERCENT DISCREPANCY =           0.01     PERCENT DISCREPANCY =           0.01






         TIME SUMMARY AT END OF TIME STEP   67 IN STRESS PERIOD    2
                    SECONDS     MINUTES      HOURS       DAYS        YEARS
                    -----------------------------------------------------------
   TIME STEP LENGTH  86400.      1440.0      24.000      1.0000     2.73785E-03
 STRESS PERIOD TIME 5.78880E+06  96480.      1608.0      67.000     0.18344    
         TOTAL TIME 5.87520E+06  97920.      1632.0      68.000     0.18617    
1
 
 SOLVING FOR HEAD 

 OUTPUT CONTROL FOR STRESS PERIOD    2   TIME STEP   68
    SAVE HEAD FOR ALL LAYERS
    SAVE DRAWDOWN FOR ALL LAYERS
    SAVE BUDGET
    PRINT HEAD FOR ALL LAYERS
    PRINT BUDGET
 UBDSV1 SAVING "         STORAGE" ON UNIT  53 AT TIME STEP 68, STRESS PERIOD   2
 UBDSV2 SAVING "   CONSTANT HEAD" ON UNIT  53 AT TIME STEP 68, STRESS PERIOD   2
 UBDSV1 SAVING "FLOW RIGHT FACE " ON UNIT  53 AT TIME STEP 68, STRESS PERIOD   2
 UBDSV1 SAVING "FLOW FRONT FACE " ON UNIT  53 AT TIME STEP 68, STRESS PERIOD   2
 UBDSV1 SAVING "FLOW LOWER FACE " ON UNIT  53 AT TIME STEP 68, STRESS PERIOD   2
1
              HEAD IN LAYER   1 AT END OF TIME STEP  68 IN STRESS PERIOD    2
  ---------------------------------------------------------------------------

            1           2           3           4           5           6           7           8           9          10
 ........................................................................................................................
   1    9.997       8.887       7.776       6.666       5.555       4.445       3.335       2.224       1.114      3.3313E-03
   2    9.997       8.887       7.776       6.666       5.555       4.445       3.335       2.224       1.114      3.3313E-03
   3    9.997       8.887       7.776       6.666       5.555       4.445       3.335       2.224       1.114      3.3313E-03
   4    9.997       8.887       7.776       6.666       5.555       4.445       3.335       2.224       1.114      3.3313E-03
   5    9.997       8.887       7.776       6.666       5.555       4.445       3.335       2.224       1.114      3.3313E-03
   6    9.997       8.887       7.776       6.666       5.555       4.445       3.335       2.224       1.114      3.3313E-03
   7    9.997       8.887       7.776       6.666       5.555       4.445       3.335       2.224       1.114      3.3313E-03
   8    9.997       8.887       7.776       6.666       5.555       4.445       3.335       2.224       1.114      3.3313E-03
   9    9.997       8.887       7.776       6.666       5.555       4.445       3.335       2.224       1.114      3.3313E-03
  10    9.997       8.887       7.776       6.666       5.555       4.445       3.335       2.224       1.114      3.3313E-03
1
              HEAD IN LAYER   2 AT END OF TIME STEP  68 IN STRESS PERIOD    2
  ---------------------------------------------------------------------------

            1           2           3           4           5           6           7           8           9          10
 ........................................................................................................................
   1    9.997       8.887       7.776       6.666       5.555       4.445       3.335       2.224       1.114      3.3313E-03
   2    9.997       8.887       7.776       6.666       5.555       4.445       3.335       2.224       1.114      3.3313E-03
   3    9.997       8.887       7.776       6.666       5.555       4.445       3.335       2.224       1.114      3.3313E-03
   4    9.997       8.887       7.776       6.666       5.555       4.445       3.335       2.224       1.114      3.3313E-03
   5    9.997       8.887       7.776       6.666       5.555       4.445       3.335       2.224       1.114      3.3313E-03
   6    9.997       8.887       7.776       6.666       5.555       4.445       3.335       2.224       1.114      3.3313E-03
   7    9.997       8.887       7.776       6.666       5.555       4.445       3.335       2.224       1.114      3.3313E-03
   8    9.997       8.887       7.776       6.666       5.555       4.445       3.335       2.224       1.114      3.3313E-03
   9    9.997       8.887       7.776       6.666       5.555       4.445       3.335       2.224       1.114      3.3313E-03
  10    9.997       8.887       7.776       6.666       5.555       4.445       3.335       2.224       1.114      3.3313E-03
1
              HEAD IN LAYER   3 AT END OF TIME STEP  68 IN STRESS PERIOD    2
  ---------------------------------------------------------------------------

            1           2           3           4           5           6           7           8           9          10
 ........................................................................................................................
   1    9.997       8.887       7.776       6.666       5.555       4.445       3.335       2.224       1.114      3.3313E-03
   2    9.997       8.887       7.776       6.666       5.555       4.445       3.335       2.224       1.114      3.3313E-03
   3    9.997       8.887       7.776       6.666       5.555       4.445       3.335       2.224       1.114      3.3313E-03
   4    9.997       8.887       7.776       6.666       5.555       4.445       3.335       2.224       1.114      3.3313E-03
   5    9.997       8.887       7.776       6.666       5.555       4.445       3.335       2.224       1.114      3.3313E-03
   6    9.997       8.887       7.776       6.666       5.555       4.445       3.335       2.224       1.114      3.3313E-03
   7    9.997       8.887       7.776       6.666       5.555       4.445       3.335       2.224       1.114      3.3313E-03
   8    9.997       8.887       7.776       6.666       5.555       4.445       3.335       2.224       1.114      3.3313E-03
   9    9.997       8.887       7.776       6.666       5.555       4.445       3.335       2.224       1.114      3.3313E-03
  10    9.997       8.887       7.776       6.666       5.555       4.445       3.335       2.224       1.114      3.3313E-03
1
              HEAD IN LAYER   4 AT END OF TIME STEP  68 IN STRESS PERIOD    2
  ---------------------------------------------------------------------------

            1           2           3           4           5           6           7           8           9          10
 ........................................................................................................................
   1    9.997       8.887       7.776       6.666       5.555       4.445       3.335       2.224       1.114      3.3313E-03
   2    9.997       8.887       7.776       6.666       5.555       4.445       3.335       2.224       1.114      3.3313E-03
   3    9.997       8.887       7.776       6.666       5.555       4.445       3.335       2.224       1.114      3.3313E-03
   4    9.997       8.887       7.776       6.666       5.555       4.445       3.335       2.224       1.114      3.3313E-03
   5    9.997       8.887       7.776       6.666       5.555       4.445       3.335       2.224       1.114      3.3313E-03
   6    9.997       8.887       7.776       6.666       5.555       4.445       3.335       2.224       1.114      3.3313E-03
   7    9.997       8.887       7.776       6.666       5.555       4.445       3.335       2.224       1.114      3.3313E-03
   8    9.997       8.887       7.776       6.666       5.555       4.445       3.335       2.224       1.114      3.3313E-03
   9    9.997       8.887       7.776       6.666       5.555       4.445       3.335       2.224       1.114      3.3313E-03
  10    9.997       8.887       7.776       6.666       5.555       4.445       3.335       2.224       1.114      3.3313E-03

 HEAD WILL BE SAVED ON UNIT   51 AT END OF TIME STEP   68, STRESS PERIOD    2

 DRAWDOWN WILL BE SAVED ON UNIT   52 AT END OF TIME STEP   68, STRESS PERIOD    2
1
  VOLUMETRIC BUDGET FOR ENTIRE MODEL AT END OF TIME STEP   68, STRESS PERIOD   2
  ------------------------------------------------------------------------------

     CUMULATIVE VOLUMES      L**3       RATES FOR THIS TIME STEP      L**3/T
     ------------------                 ------------------------

           IN:                                      IN:
           ---                                      ---
             STORAGE =       1.0477E-08               STORAGE =           0.0000
       CONSTANT HEAD =           0.0000         CONSTANT HEAD =           0.0000
               WELLS =           0.0000                 WELLS =           0.0000
     HEAD DEP BOUNDS =       45975.5078       HEAD DEP BOUNDS =         666.3123

            TOTAL IN =       45975.5078              TOTAL IN =         666.3123

          OUT:                                     OUT:
          ----                                     ----
             STORAGE =       5.2387E-08               STORAGE =           0.0000
       CONSTANT HEAD =           0.0000         CONSTANT HEAD =           0.0000
               WELLS =           0.0000                 WELLS =           0.0000
     HEAD DEP BOUNDS =       45971.8828       HEAD DEP BOUNDS =         666.2595

           TOTAL OUT =       45971.8828             TOTAL OUT =         666.2595

            IN - OUT =           3.6250              IN - OUT =       5.2795E-02

 PERCENT DISCREPANCY =           0.01     PERCENT DISCREPANCY =           0.01






         TIME SUMMARY AT END OF TIME STEP   68 IN STRESS PERIOD    2
                    SECONDS     MINUTES      HOURS       DAYS        YEARS
                    -----------------------------------------------------------
   TIME STEP LENGTH  86400.      1440.0      24.000      1.0000     2.73785E-03
 STRESS PERIOD TIME 5.87520E+06  97920.      1632.0      68.000     0.18617    
         TOTAL TIME 5.96160E+06  99360.      1656.0      69.000     0.18891    
1
 
 SOLVING FOR HEAD 

 OUTPUT CONTROL FOR STRESS PERIOD    2   TIME STEP   69
    SAVE HEAD FOR ALL LAYERS
    SAVE DRAWDOWN FOR ALL LAYERS
    SAVE BUDGET
    PRINT HEAD FOR ALL LAYERS
    PRINT BUDGET
 UBDSV1 SAVING "         STORAGE" ON UNIT  53 AT TIME STEP 69, STRESS PERIOD   2
 UBDSV2 SAVING "   CONSTANT HEAD" ON UNIT  53 AT TIME STEP 69, STRESS PERIOD   2
 UBDSV1 SAVING "FLOW RIGHT FACE " ON UNIT  53 AT TIME STEP 69, STRESS PERIOD   2
 UBDSV1 SAVING "FLOW FRONT FACE " ON UNIT  53 AT TIME STEP 69, STRESS PERIOD   2
 UBDSV1 SAVING "FLOW LOWER FACE " ON UNIT  53 AT TIME STEP 69, STRESS PERIOD   2
1
              HEAD IN LAYER   1 AT END OF TIME STEP  69 IN STRESS PERIOD    2
  ---------------------------------------------------------------------------

            1           2           3           4           5           6           7           8           9          10
 ........................................................................................................................
   1    9.997       8.887       7.776       6.666       5.555       4.445       3.335       2.224       1.114      3.3313E-03
   2    9.997       8.887       7.776       6.666       5.555       4.445       3.335       2.224       1.114      3.3313E-03
   3    9.997       8.887       7.776       6.666       5.555       4.445       3.335       2.224       1.114      3.3313E-03
   4    9.997       8.887       7.776       6.666       5.555       4.445       3.335       2.224       1.114      3.3313E-03
   5    9.997       8.887       7.776       6.666       5.555       4.445       3.335       2.224       1.114      3.3313E-03
   6    9.997       8.887       7.776       6.666       5.555       4.445       3.335       2.224       1.114      3.3313E-03
   7    9.997       8.887       7.776       6.666       5.555       4.445       3.335       2.224       1.114      3.3313E-03
   8    9.997       8.887       7.776       6.666       5.555       4.445       3.335       2.224       1.114      3.3313E-03
   9    9.997       8.887       7.776       6.666       5.555       4.445       3.335       2.224       1.114      3.3313E-03
  10    9.997       8.887       7.776       6.666       5.555       4.445       3.335       2.224       1.114      3.3313E-03
1
              HEAD IN LAYER   2 AT END OF TIME STEP  69 IN STRESS PERIOD    2
  ---------------------------------------------------------------------------

            1           2           3           4           5           6           7           8           9          10
 ........................................................................................................................
   1    9.997       8.887       7.776       6.666       5.555       4.445       3.335       2.224       1.114      3.3313E-03
   2    9.997       8.887       7.776       6.666       5.555       4.445       3.335       2.224       1.114      3.3313E-03
   3    9.997       8.887       7.776       6.666       5.555       4.445       3.335       2.224       1.114      3.3313E-03
   4    9.997       8.887       7.776       6.666       5.555       4.445       3.335       2.224       1.114      3.3313E-03
   5    9.997       8.887       7.776       6.666       5.555       4.445       3.335       2.224       1.114      3.3313E-03
   6    9.997       8.887       7.776       6.666       5.555       4.445       3.335       2.224       1.114      3.3313E-03
   7    9.997       8.887       7.776       6.666       5.555       4.445       3.335       2.224       1.114      3.3313E-03
   8    9.997       8.887       7.776       6.666       5.555       4.445       3.335       2.224       1.114      3.3313E-03
   9    9.997       8.887       7.776       6.666       5.555       4.445       3.335       2.224       1.114      3.3313E-03
  10    9.997       8.887       7.776       6.666       5.555       4.445       3.335       2.224       1.114      3.3313E-03
1
              HEAD IN LAYER   3 AT END OF TIME STEP  69 IN STRESS PERIOD    2
  ---------------------------------------------------------------------------

            1           2           3           4           5           6           7           8           9          10
 ........................................................................................................................
   1    9.997       8.887       7.776       6.666       5.555       4.445       3.335       2.224       1.114      3.3313E-03
   2    9.997       8.887       7.776       6.666       5.555       4.445       3.335       2.224       1.114      3.3313E-03
   3    9.997       8.887       7.776       6.666       5.555       4.445       3.335       2.224       1.114      3.3313E-03
   4    9.997       8.887       7.776       6.666       5.555       4.445       3.335       2.224       1.114      3.3313E-03
   5    9.997       8.887       7.776       6.666       5.555       4.445       3.335       2.224       1.114      3.3313E-03
   6    9.997       8.887       7.776       6.666       5.555       4.445       3.335       2.224       1.114      3.3313E-03
   7    9.997       8.887       7.776       6.666       5.555       4.445       3.335       2.224       1.114      3.3313E-03
   8    9.997       8.887       7.776       6.666       5.555       4.445       3.335       2.224       1.114      3.3313E-03
   9    9.997       8.887       7.776       6.666       5.555       4.445       3.335       2.224       1.114      3.3313E-03
  10    9.997       8.887       7.776       6.666       5.555       4.445       3.335       2.224       1.114      3.3313E-03
1
              HEAD IN LAYER   4 AT END OF TIME STEP  69 IN STRESS PERIOD    2
  ---------------------------------------------------------------------------

            1           2           3           4           5           6           7           8           9          10
 ........................................................................................................................
   1    9.997       8.887       7.776       6.666       5.555       4.445       3.335       2.224       1.114      3.3313E-03
   2    9.997       8.887       7.776       6.666       5.555       4.445       3.335       2.224       1.114      3.3313E-03
   3    9.997       8.887       7.776       6.666       5.555       4.445       3.335       2.224       1.114      3.3313E-03
   4    9.997       8.887       7.776       6.666       5.555       4.445       3.335       2.224       1.114      3.3313E-03
   5    9.997       8.887       7.776       6.666       5.555       4.445       3.335       2.224       1.114      3.3313E-03
   6    9.997       8.887       7.776       6.666       5.555       4.445       3.335       2.224       1.114      3.3313E-03
   7    9.997       8.887       7.776       6.666       5.555       4.445       3.335       2.224       1.114      3.3313E-03
   8    9.997       8.887       7.776       6.666       5.555       4.445       3.335       2.224       1.114      3.3313E-03
   9    9.997       8.887       7.776       6.666       5.555       4.445       3.335       2.224       1.114      3.3313E-03
  10    9.997       8.887       7.776       6.666       5.555       4.445       3.335       2.224       1.114      3.3313E-03

 HEAD WILL BE SAVED ON UNIT   51 AT END OF TIME STEP   69, STRESS PERIOD    2

 DRAWDOWN WILL BE SAVED ON UNIT   52 AT END OF TIME STEP   69, STRESS PERIOD    2
1
  VOLUMETRIC BUDGET FOR ENTIRE MODEL AT END OF TIME STEP   69, STRESS PERIOD   2
  ------------------------------------------------------------------------------

     CUMULATIVE VOLUMES      L**3       RATES FOR THIS TIME STEP      L**3/T
     ------------------                 ------------------------

           IN:                                      IN:
           ---                                      ---
             STORAGE =       1.0477E-08               STORAGE =           0.0000
       CONSTANT HEAD =           0.0000         CONSTANT HEAD =           0.0000
               WELLS =           0.0000                 WELLS =           0.0000
     HEAD DEP BOUNDS =       46641.8203       HEAD DEP BOUNDS =         666.3123

            TOTAL IN =       46641.8203              TOTAL IN =         666.3123

          OUT:                                     OUT:
          ----                                     ----
             STORAGE =       5.2387E-08               STORAGE =           0.0000
       CONSTANT HEAD =           0.0000         CONSTANT HEAD =           0.0000
               WELLS =           0.0000                 WELLS =           0.0000
     HEAD DEP BOUNDS =       46638.1406       HEAD DEP BOUNDS =         666.2595

           TOTAL OUT =       46638.1406             TOTAL OUT =         666.2595

            IN - OUT =           3.6797              IN - OUT =       5.2795E-02

 PERCENT DISCREPANCY =           0.01     PERCENT DISCREPANCY =           0.01






         TIME SUMMARY AT END OF TIME STEP   69 IN STRESS PERIOD    2
                    SECONDS     MINUTES      HOURS       DAYS        YEARS
                    -----------------------------------------------------------
   TIME STEP LENGTH  86400.      1440.0      24.000      1.0000     2.73785E-03
 STRESS PERIOD TIME 5.96160E+06  99360.      1656.0      69.000     0.18891    
         TOTAL TIME 6.04800E+06 1.00800E+05  1680.0      70.000     0.19165    
1
 
 SOLVING FOR HEAD 

 OUTPUT CONTROL FOR STRESS PERIOD    2   TIME STEP   70
    SAVE HEAD FOR ALL LAYERS
    SAVE DRAWDOWN FOR ALL LAYERS
    SAVE BUDGET
    PRINT HEAD FOR ALL LAYERS
    PRINT BUDGET
 UBDSV1 SAVING "         STORAGE" ON UNIT  53 AT TIME STEP 70, STRESS PERIOD   2
 UBDSV2 SAVING "   CONSTANT HEAD" ON UNIT  53 AT TIME STEP 70, STRESS PERIOD   2
 UBDSV1 SAVING "FLOW RIGHT FACE " ON UNIT  53 AT TIME STEP 70, STRESS PERIOD   2
 UBDSV1 SAVING "FLOW FRONT FACE " ON UNIT  53 AT TIME STEP 70, STRESS PERIOD   2
 UBDSV1 SAVING "FLOW LOWER FACE " ON UNIT  53 AT TIME STEP 70, STRESS PERIOD   2
1
              HEAD IN LAYER   1 AT END OF TIME STEP  70 IN STRESS PERIOD    2
  ---------------------------------------------------------------------------

            1           2           3           4           5           6           7           8           9          10
 ........................................................................................................................
   1    9.997       8.887       7.776       6.666       5.555       4.445       3.335       2.224       1.114      3.3313E-03
   2    9.997       8.887       7.776       6.666       5.555       4.445       3.335       2.224       1.114      3.3313E-03
   3    9.997       8.887       7.776       6.666       5.555       4.445       3.335       2.224       1.114      3.3313E-03
   4    9.997       8.887       7.776       6.666       5.555       4.445       3.335       2.224       1.114      3.3313E-03
   5    9.997       8.887       7.776       6.666       5.555       4.445       3.335       2.224       1.114      3.3313E-03
   6    9.997       8.887       7.776       6.666       5.555       4.445       3.335       2.224       1.114      3.3313E-03
   7    9.997       8.887       7.776       6.666       5.555       4.445       3.335       2.224       1.114      3.3313E-03
   8    9.997       8.887       7.776       6.666       5.555       4.445       3.335       2.224       1.114      3.3313E-03
   9    9.997       8.887       7.776       6.666       5.555       4.445       3.335       2.224       1.114      3.3313E-03
  10    9.997       8.887       7.776       6.666       5.555       4.445       3.335       2.224       1.114      3.3313E-03
1
              HEAD IN LAYER   2 AT END OF TIME STEP  70 IN STRESS PERIOD    2
  ---------------------------------------------------------------------------

            1           2           3           4           5           6           7           8           9          10
 ........................................................................................................................
   1    9.997       8.887       7.776       6.666       5.555       4.445       3.335       2.224       1.114      3.3313E-03
   2    9.997       8.887       7.776       6.666       5.555       4.445       3.335       2.224       1.114      3.3313E-03
   3    9.997       8.887       7.776       6.666       5.555       4.445       3.335       2.224       1.114      3.3313E-03
   4    9.997       8.887       7.776       6.666       5.555       4.445       3.335       2.224       1.114      3.3313E-03
   5    9.997       8.887       7.776       6.666       5.555       4.445       3.335       2.224       1.114      3.3313E-03
   6    9.997       8.887       7.776       6.666       5.555       4.445       3.335       2.224       1.114      3.3313E-03
   7    9.997       8.887       7.776       6.666       5.555       4.445       3.335       2.224       1.114      3.3313E-03
   8    9.997       8.887       7.776       6.666       5.555       4.445       3.335       2.224       1.114      3.3313E-03
   9    9.997       8.887       7.776       6.666       5.555       4.445       3.335       2.224       1.114      3.3313E-03
  10    9.997       8.887       7.776       6.666       5.555       4.445       3.335       2.224       1.114      3.3313E-03
1
              HEAD IN LAYER   3 AT END OF TIME STEP  70 IN STRESS PERIOD    2
  ---------------------------------------------------------------------------

            1           2           3           4           5           6           7           8           9          10
 ........................................................................................................................
   1    9.997       8.887       7.776       6.666       5.555       4.445       3.335       2.224       1.114      3.3313E-03
   2    9.997       8.887       7.776       6.666       5.555       4.445       3.335       2.224       1.114      3.3313E-03
   3    9.997       8.887       7.776       6.666       5.555       4.445       3.335       2.224       1.114      3.3313E-03
   4    9.997       8.887       7.776       6.666       5.555       4.445       3.335       2.224       1.114      3.3313E-03
   5    9.997       8.887       7.776       6.666       5.555       4.445       3.335       2.224       1.114      3.3313E-03
   6    9.997       8.887       7.776       6.666       5.555       4.445       3.335       2.224       1.114      3.3313E-03
   7    9.997       8.887       7.776       6.666       5.555       4.445       3.335       2.224       1.114      3.3313E-03
   8    9.997       8.887       7.776       6.666       5.555       4.445       3.335       2.224       1.114      3.3313E-03
   9    9.997       8.887       7.776       6.666       5.555       4.445       3.335       2.224       1.114      3.3313E-03
  10    9.997       8.887       7.776       6.666       5.555       4.445       3.335       2.224       1.114      3.3313E-03
1
              HEAD IN LAYER   4 AT END OF TIME STEP  70 IN STRESS PERIOD    2
  ---------------------------------------------------------------------------

            1           2           3           4           5           6           7           8           9          10
 ........................................................................................................................
   1    9.997       8.887       7.776       6.666       5.555       4.445       3.335       2.224       1.114      3.3313E-03
   2    9.997       8.887       7.776       6.666       5.555       4.445       3.335       2.224       1.114      3.3313E-03
   3    9.997       8.887       7.776       6.666       5.555       4.445       3.335       2.224       1.114      3.3313E-03
   4    9.997       8.887       7.776       6.666       5.555       4.445       3.335       2.224       1.114      3.3313E-03
   5    9.997       8.887       7.776       6.666       5.555       4.445       3.335       2.224       1.114      3.3313E-03
   6    9.997       8.887       7.776       6.666       5.555       4.445       3.335       2.224       1.114      3.3313E-03
   7    9.997       8.887       7.776       6.666       5.555       4.445       3.335       2.224       1.114      3.3313E-03
   8    9.997       8.887       7.776       6.666       5.555       4.445       3.335       2.224       1.114      3.3313E-03
   9    9.997       8.887       7.776       6.666       5.555       4.445       3.335       2.224       1.114      3.3313E-03
  10    9.997       8.887       7.776       6.666       5.555       4.445       3.335       2.224       1.114      3.3313E-03

 HEAD WILL BE SAVED ON UNIT   51 AT END OF TIME STEP   70, STRESS PERIOD    2

 DRAWDOWN WILL BE SAVED ON UNIT   52 AT END OF TIME STEP   70, STRESS PERIOD    2
1
  VOLUMETRIC BUDGET FOR ENTIRE MODEL AT END OF TIME STEP   70, STRESS PERIOD   2
  ------------------------------------------------------------------------------

     CUMULATIVE VOLUMES      L**3       RATES FOR THIS TIME STEP      L**3/T
     ------------------                 ------------------------

           IN:                                      IN:
           ---                                      ---
             STORAGE =       1.0477E-08               STORAGE =           0.0000
       CONSTANT HEAD =           0.0000         CONSTANT HEAD =           0.0000
               WELLS =           0.0000                 WELLS =           0.0000
     HEAD DEP BOUNDS =       47308.1328       HEAD DEP BOUNDS =         666.3123

            TOTAL IN =       47308.1328              TOTAL IN =         666.3123

          OUT:                                     OUT:
          ----                                     ----
             STORAGE =       5.2387E-08               STORAGE =           0.0000
       CONSTANT HEAD =           0.0000         CONSTANT HEAD =           0.0000
               WELLS =           0.0000                 WELLS =           0.0000
     HEAD DEP BOUNDS =       47304.3984       HEAD DEP BOUNDS =         666.2595

           TOTAL OUT =       47304.3984             TOTAL OUT =         666.2595

            IN - OUT =           3.7344              IN - OUT =       5.2795E-02

 PERCENT DISCREPANCY =           0.01     PERCENT DISCREPANCY =           0.01






         TIME SUMMARY AT END OF TIME STEP   70 IN STRESS PERIOD    2
                    SECONDS     MINUTES      HOURS       DAYS        YEARS
                    -----------------------------------------------------------
   TIME STEP LENGTH  86400.      1440.0      24.000      1.0000     2.73785E-03
 STRESS PERIOD TIME 6.04800E+06 1.00800E+05  1680.0      70.000     0.19165    
         TOTAL TIME 6.13440E+06 1.02240E+05  1704.0      71.000     0.19439    
1
 
 SOLVING FOR HEAD 

 OUTPUT CONTROL FOR STRESS PERIOD    2   TIME STEP   71
    SAVE HEAD FOR ALL LAYERS
    SAVE DRAWDOWN FOR ALL LAYERS
    SAVE BUDGET
    PRINT HEAD FOR ALL LAYERS
    PRINT BUDGET
 UBDSV1 SAVING "         STORAGE" ON UNIT  53 AT TIME STEP 71, STRESS PERIOD   2
 UBDSV2 SAVING "   CONSTANT HEAD" ON UNIT  53 AT TIME STEP 71, STRESS PERIOD   2
 UBDSV1 SAVING "FLOW RIGHT FACE " ON UNIT  53 AT TIME STEP 71, STRESS PERIOD   2
 UBDSV1 SAVING "FLOW FRONT FACE " ON UNIT  53 AT TIME STEP 71, STRESS PERIOD   2
 UBDSV1 SAVING "FLOW LOWER FACE " ON UNIT  53 AT TIME STEP 71, STRESS PERIOD   2
1
              HEAD IN LAYER   1 AT END OF TIME STEP  71 IN STRESS PERIOD    2
  ---------------------------------------------------------------------------

            1           2           3           4           5           6           7           8           9          10
 ........................................................................................................................
   1    9.997       8.887       7.776       6.666       5.555       4.445       3.335       2.224       1.114      3.3313E-03
   2    9.997       8.887       7.776       6.666       5.555       4.445       3.335       2.224       1.114      3.3313E-03
   3    9.997       8.887       7.776       6.666       5.555       4.445       3.335       2.224       1.114      3.3313E-03
   4    9.997       8.887       7.776       6.666       5.555       4.445       3.335       2.224       1.114      3.3313E-03
   5    9.997       8.887       7.776       6.666       5.555       4.445       3.335       2.224       1.114      3.3313E-03
   6    9.997       8.887       7.776       6.666       5.555       4.445       3.335       2.224       1.114      3.3313E-03
   7    9.997       8.887       7.776       6.666       5.555       4.445       3.335       2.224       1.114      3.3313E-03
   8    9.997       8.887       7.776       6.666       5.555       4.445       3.335       2.224       1.114      3.3313E-03
   9    9.997       8.887       7.776       6.666       5.555       4.445       3.335       2.224       1.114      3.3313E-03
  10    9.997       8.887       7.776       6.666       5.555       4.445       3.335       2.224       1.114      3.3313E-03
1
              HEAD IN LAYER   2 AT END OF TIME STEP  71 IN STRESS PERIOD    2
  ---------------------------------------------------------------------------

            1           2           3           4           5           6           7           8           9          10
 ........................................................................................................................
   1    9.997       8.887       7.776       6.666       5.555       4.445       3.335       2.224       1.114      3.3313E-03
   2    9.997       8.887       7.776       6.666       5.555       4.445       3.335       2.224       1.114      3.3313E-03
   3    9.997       8.887       7.776       6.666       5.555       4.445       3.335       2.224       1.114      3.3313E-03
   4    9.997       8.887       7.776       6.666       5.555       4.445       3.335       2.224       1.114      3.3313E-03
   5    9.997       8.887       7.776       6.666       5.555       4.445       3.335       2.224       1.114      3.3313E-03
   6    9.997       8.887       7.776       6.666       5.555       4.445       3.335       2.224       1.114      3.3313E-03
   7    9.997       8.887       7.776       6.666       5.555       4.445       3.335       2.224       1.114      3.3313E-03
   8    9.997       8.887       7.776       6.666       5.555       4.445       3.335       2.224       1.114      3.3313E-03
   9    9.997       8.887       7.776       6.666       5.555       4.445       3.335       2.224       1.114      3.3313E-03
  10    9.997       8.887       7.776       6.666       5.555       4.445       3.335       2.224       1.114      3.3313E-03
1
              HEAD IN LAYER   3 AT END OF TIME STEP  71 IN STRESS PERIOD    2
  ---------------------------------------------------------------------------

            1           2           3           4           5           6           7           8           9          10
 ........................................................................................................................
   1    9.997       8.887       7.776       6.666       5.555       4.445       3.335       2.224       1.114      3.3313E-03
   2    9.997       8.887       7.776       6.666       5.555       4.445       3.335       2.224       1.114      3.3313E-03
   3    9.997       8.887       7.776       6.666       5.555       4.445       3.335       2.224       1.114      3.3313E-03
   4    9.997       8.887       7.776       6.666       5.555       4.445       3.335       2.224       1.114      3.3313E-03
   5    9.997       8.887       7.776       6.666       5.555       4.445       3.335       2.224       1.114      3.3313E-03
   6    9.997       8.887       7.776       6.666       5.555       4.445       3.335       2.224       1.114      3.3313E-03
   7    9.997       8.887       7.776       6.666       5.555       4.445       3.335       2.224       1.114      3.3313E-03
   8    9.997       8.887       7.776       6.666       5.555       4.445       3.335       2.224       1.114      3.3313E-03
   9    9.997       8.887       7.776       6.666       5.555       4.445       3.335       2.224       1.114      3.3313E-03
  10    9.997       8.887       7.776       6.666       5.555       4.445       3.335       2.224       1.114      3.3313E-03
1
              HEAD IN LAYER   4 AT END OF TIME STEP  71 IN STRESS PERIOD    2
  ---------------------------------------------------------------------------

            1           2           3           4           5           6           7           8           9          10
 ........................................................................................................................
   1    9.997       8.887       7.776       6.666       5.555       4.445       3.335       2.224       1.114      3.3313E-03
   2    9.997       8.887       7.776       6.666       5.555       4.445       3.335       2.224       1.114      3.3313E-03
   3    9.997       8.887       7.776       6.666       5.555       4.445       3.335       2.224       1.114      3.3313E-03
   4    9.997       8.887       7.776       6.666       5.555       4.445       3.335       2.224       1.114      3.3313E-03
   5    9.997       8.887       7.776       6.666       5.555       4.445       3.335       2.224       1.114      3.3313E-03
   6    9.997       8.887       7.776       6.666       5.555       4.445       3.335       2.224       1.114      3.3313E-03
   7    9.997       8.887       7.776       6.666       5.555       4.445       3.335       2.224       1.114      3.3313E-03
   8    9.997       8.887       7.776       6.666       5.555       4.445       3.335       2.224       1.114      3.3313E-03
   9    9.997       8.887       7.776       6.666       5.555       4.445       3.335       2.224       1.114      3.3313E-03
  10    9.997       8.887       7.776       6.666       5.555       4.445       3.335       2.224       1.114      3.3313E-03

 HEAD WILL BE SAVED ON UNIT   51 AT END OF TIME STEP   71, STRESS PERIOD    2

 DRAWDOWN WILL BE SAVED ON UNIT   52 AT END OF TIME STEP   71, STRESS PERIOD    2
1
  VOLUMETRIC BUDGET FOR ENTIRE MODEL AT END OF TIME STEP   71, STRESS PERIOD   2
  ------------------------------------------------------------------------------

     CUMULATIVE VOLUMES      L**3       RATES FOR THIS TIME STEP      L**3/T
     ------------------                 ------------------------

           IN:                                      IN:
           ---                                      ---
             STORAGE =       1.0477E-08               STORAGE =           0.0000
       CONSTANT HEAD =           0.0000         CONSTANT HEAD =           0.0000
               WELLS =           0.0000                 WELLS =           0.0000
     HEAD DEP BOUNDS =       47974.4453       HEAD DEP BOUNDS =         666.3123

            TOTAL IN =       47974.4453              TOTAL IN =         666.3123

          OUT:                                     OUT:
          ----                                     ----
             STORAGE =       5.2387E-08               STORAGE =           0.0000
       CONSTANT HEAD =           0.0000         CONSTANT HEAD =           0.0000
               WELLS =           0.0000                 WELLS =           0.0000
     HEAD DEP BOUNDS =       47970.6562       HEAD DEP BOUNDS =         666.2595

           TOTAL OUT =       47970.6562             TOTAL OUT =         666.2595

            IN - OUT =           3.7891              IN - OUT =       5.2795E-02

 PERCENT DISCREPANCY =           0.01     PERCENT DISCREPANCY =           0.01






         TIME SUMMARY AT END OF TIME STEP   71 IN STRESS PERIOD    2
                    SECONDS     MINUTES      HOURS       DAYS        YEARS
                    -----------------------------------------------------------
   TIME STEP LENGTH  86400.      1440.0      24.000      1.0000     2.73785E-03
 STRESS PERIOD TIME 6.13440E+06 1.02240E+05  1704.0      71.000     0.19439    
         TOTAL TIME 6.22080E+06 1.03680E+05  1728.0      72.000     0.19713    
1
 
 SOLVING FOR HEAD 

 OUTPUT CONTROL FOR STRESS PERIOD    2   TIME STEP   72
    SAVE HEAD FOR ALL LAYERS
    SAVE DRAWDOWN FOR ALL LAYERS
    SAVE BUDGET
    PRINT HEAD FOR ALL LAYERS
    PRINT BUDGET
 UBDSV1 SAVING "         STORAGE" ON UNIT  53 AT TIME STEP 72, STRESS PERIOD   2
 UBDSV2 SAVING "   CONSTANT HEAD" ON UNIT  53 AT TIME STEP 72, STRESS PERIOD   2
 UBDSV1 SAVING "FLOW RIGHT FACE " ON UNIT  53 AT TIME STEP 72, STRESS PERIOD   2
 UBDSV1 SAVING "FLOW FRONT FACE " ON UNIT  53 AT TIME STEP 72, STRESS PERIOD   2
 UBDSV1 SAVING "FLOW LOWER FACE " ON UNIT  53 AT TIME STEP 72, STRESS PERIOD   2
1
              HEAD IN LAYER   1 AT END OF TIME STEP  72 IN STRESS PERIOD    2
  ---------------------------------------------------------------------------

            1           2           3           4           5           6           7           8           9          10
 ........................................................................................................................
   1    9.997       8.887       7.776       6.666       5.555       4.445       3.335       2.224       1.114      3.3313E-03
   2    9.997       8.887       7.776       6.666       5.555       4.445       3.335       2.224       1.114      3.3313E-03
   3    9.997       8.887       7.776       6.666       5.555       4.445       3.335       2.224       1.114      3.3313E-03
   4    9.997       8.887       7.776       6.666       5.555       4.445       3.335       2.224       1.114      3.3313E-03
   5    9.997       8.887       7.776       6.666       5.555       4.445       3.335       2.224       1.114      3.3313E-03
   6    9.997       8.887       7.776       6.666       5.555       4.445       3.335       2.224       1.114      3.3313E-03
   7    9.997       8.887       7.776       6.666       5.555       4.445       3.335       2.224       1.114      3.3313E-03
   8    9.997       8.887       7.776       6.666       5.555       4.445       3.335       2.224       1.114      3.3313E-03
   9    9.997       8.887       7.776       6.666       5.555       4.445       3.335       2.224       1.114      3.3313E-03
  10    9.997       8.887       7.776       6.666       5.555       4.445       3.335       2.224       1.114      3.3313E-03
1
              HEAD IN LAYER   2 AT END OF TIME STEP  72 IN STRESS PERIOD    2
  ---------------------------------------------------------------------------

            1           2           3           4           5           6           7           8           9          10
 ........................................................................................................................
   1    9.997       8.887       7.776       6.666       5.555       4.445       3.335       2.224       1.114      3.3313E-03
   2    9.997       8.887       7.776       6.666       5.555       4.445       3.335       2.224       1.114      3.3313E-03
   3    9.997       8.887       7.776       6.666       5.555       4.445       3.335       2.224       1.114      3.3313E-03
   4    9.997       8.887       7.776       6.666       5.555       4.445       3.335       2.224       1.114      3.3313E-03
   5    9.997       8.887       7.776       6.666       5.555       4.445       3.335       2.224       1.114      3.3313E-03
   6    9.997       8.887       7.776       6.666       5.555       4.445       3.335       2.224       1.114      3.3313E-03
   7    9.997       8.887       7.776       6.666       5.555       4.445       3.335       2.224       1.114      3.3313E-03
   8    9.997       8.887       7.776       6.666       5.555       4.445       3.335       2.224       1.114      3.3313E-03
   9    9.997       8.887       7.776       6.666       5.555       4.445       3.335       2.224       1.114      3.3313E-03
  10    9.997       8.887       7.776       6.666       5.555       4.445       3.335       2.224       1.114      3.3313E-03
1
              HEAD IN LAYER   3 AT END OF TIME STEP  72 IN STRESS PERIOD    2
  ---------------------------------------------------------------------------

            1           2           3           4           5           6           7           8           9          10
 ........................................................................................................................
   1    9.997       8.887       7.776       6.666       5.555       4.445       3.335       2.224       1.114      3.3313E-03
   2    9.997       8.887       7.776       6.666       5.555       4.445       3.335       2.224       1.114      3.3313E-03
   3    9.997       8.887       7.776       6.666       5.555       4.445       3.335       2.224       1.114      3.3313E-03
   4    9.997       8.887       7.776       6.666       5.555       4.445       3.335       2.224       1.114      3.3313E-03
   5    9.997       8.887       7.776       6.666       5.555       4.445       3.335       2.224       1.114      3.3313E-03
   6    9.997       8.887       7.776       6.666       5.555       4.445       3.335       2.224       1.114      3.3313E-03
   7    9.997       8.887       7.776       6.666       5.555       4.445       3.335       2.224       1.114      3.3313E-03
   8    9.997       8.887       7.776       6.666       5.555       4.445       3.335       2.224       1.114      3.3313E-03
   9    9.997       8.887       7.776       6.666       5.555       4.445       3.335       2.224       1.114      3.3313E-03
  10    9.997       8.887       7.776       6.666       5.555       4.445       3.335       2.224       1.114      3.3313E-03
1
              HEAD IN LAYER   4 AT END OF TIME STEP  72 IN STRESS PERIOD    2
  ---------------------------------------------------------------------------

            1           2           3           4           5           6           7           8           9          10
 ........................................................................................................................
   1    9.997       8.887       7.776       6.666       5.555       4.445       3.335       2.224       1.114      3.3313E-03
   2    9.997       8.887       7.776       6.666       5.555       4.445       3.335       2.224       1.114      3.3313E-03
   3    9.997       8.887       7.776       6.666       5.555       4.445       3.335       2.224       1.114      3.3313E-03
   4    9.997       8.887       7.776       6.666       5.555       4.445       3.335       2.224       1.114      3.3313E-03
   5    9.997       8.887       7.776       6.666       5.555       4.445       3.335       2.224       1.114      3.3313E-03
   6    9.997       8.887       7.776       6.666       5.555       4.445       3.335       2.224       1.114      3.3313E-03
   7    9.997       8.887       7.776       6.666       5.555       4.445       3.335       2.224       1.114      3.3313E-03
   8    9.997       8.887       7.776       6.666       5.555       4.445       3.335       2.224       1.114      3.3313E-03
   9    9.997       8.887       7.776       6.666       5.555       4.445       3.335       2.224       1.114      3.3313E-03
  10    9.997       8.887       7.776       6.666       5.555       4.445       3.335       2.224       1.114      3.3313E-03

 HEAD WILL BE SAVED ON UNIT   51 AT END OF TIME STEP   72, STRESS PERIOD    2

 DRAWDOWN WILL BE SAVED ON UNIT   52 AT END OF TIME STEP   72, STRESS PERIOD    2
1
  VOLUMETRIC BUDGET FOR ENTIRE MODEL AT END OF TIME STEP   72, STRESS PERIOD   2
  ------------------------------------------------------------------------------

     CUMULATIVE VOLUMES      L**3       RATES FOR THIS TIME STEP      L**3/T
     ------------------                 ------------------------

           IN:                                      IN:
           ---                                      ---
             STORAGE =       1.0477E-08               STORAGE =           0.0000
       CONSTANT HEAD =           0.0000         CONSTANT HEAD =           0.0000
               WELLS =           0.0000                 WELLS =           0.0000
     HEAD DEP BOUNDS =       48640.7578       HEAD DEP BOUNDS =         666.3123

            TOTAL IN =       48640.7578              TOTAL IN =         666.3123

          OUT:                                     OUT:
          ----                                     ----
             STORAGE =       5.2387E-08               STORAGE =           0.0000
       CONSTANT HEAD =           0.0000         CONSTANT HEAD =           0.0000
               WELLS =           0.0000                 WELLS =           0.0000
     HEAD DEP BOUNDS =       48636.9141       HEAD DEP BOUNDS =         666.2595

           TOTAL OUT =       48636.9141             TOTAL OUT =         666.2595

            IN - OUT =           3.8438              IN - OUT =       5.2795E-02

 PERCENT DISCREPANCY =           0.01     PERCENT DISCREPANCY =           0.01






         TIME SUMMARY AT END OF TIME STEP   72 IN STRESS PERIOD    2
                    SECONDS     MINUTES      HOURS       DAYS        YEARS
                    -----------------------------------------------------------
   TIME STEP LENGTH  86400.      1440.0      24.000      1.0000     2.73785E-03
 STRESS PERIOD TIME 6.22080E+06 1.03680E+05  1728.0      72.000     0.19713    
         TOTAL TIME 6.30720E+06 1.05120E+05  1752.0      73.000     0.19986    
1
 
 SOLVING FOR HEAD 

 OUTPUT CONTROL FOR STRESS PERIOD    2   TIME STEP   73
    SAVE HEAD FOR ALL LAYERS
    SAVE DRAWDOWN FOR ALL LAYERS
    SAVE BUDGET
    PRINT HEAD FOR ALL LAYERS
    PRINT BUDGET
 UBDSV1 SAVING "         STORAGE" ON UNIT  53 AT TIME STEP 73, STRESS PERIOD   2
 UBDSV2 SAVING "   CONSTANT HEAD" ON UNIT  53 AT TIME STEP 73, STRESS PERIOD   2
 UBDSV1 SAVING "FLOW RIGHT FACE " ON UNIT  53 AT TIME STEP 73, STRESS PERIOD   2
 UBDSV1 SAVING "FLOW FRONT FACE " ON UNIT  53 AT TIME STEP 73, STRESS PERIOD   2
 UBDSV1 SAVING "FLOW LOWER FACE " ON UNIT  53 AT TIME STEP 73, STRESS PERIOD   2
1
              HEAD IN LAYER   1 AT END OF TIME STEP  73 IN STRESS PERIOD    2
  ---------------------------------------------------------------------------

            1           2           3           4           5           6           7           8           9          10
 ........................................................................................................................
   1    9.997       8.887       7.776       6.666       5.555       4.445       3.335       2.224       1.114      3.3313E-03
   2    9.997       8.887       7.776       6.666       5.555       4.445       3.335       2.224       1.114      3.3313E-03
   3    9.997       8.887       7.776       6.666       5.555       4.445       3.335       2.224       1.114      3.3313E-03
   4    9.997       8.887       7.776       6.666       5.555       4.445       3.335       2.224       1.114      3.3313E-03
   5    9.997       8.887       7.776       6.666       5.555       4.445       3.335       2.224       1.114      3.3313E-03
   6    9.997       8.887       7.776       6.666       5.555       4.445       3.335       2.224       1.114      3.3313E-03
   7    9.997       8.887       7.776       6.666       5.555       4.445       3.335       2.224       1.114      3.3313E-03
   8    9.997       8.887       7.776       6.666       5.555       4.445       3.335       2.224       1.114      3.3313E-03
   9    9.997       8.887       7.776       6.666       5.555       4.445       3.335       2.224       1.114      3.3313E-03
  10    9.997       8.887       7.776       6.666       5.555       4.445       3.335       2.224       1.114      3.3313E-03
1
              HEAD IN LAYER   2 AT END OF TIME STEP  73 IN STRESS PERIOD    2
  ---------------------------------------------------------------------------

            1           2           3           4           5           6           7           8           9          10
 ........................................................................................................................
   1    9.997       8.887       7.776       6.666       5.555       4.445       3.335       2.224       1.114      3.3313E-03
   2    9.997       8.887       7.776       6.666       5.555       4.445       3.335       2.224       1.114      3.3313E-03
   3    9.997       8.887       7.776       6.666       5.555       4.445       3.335       2.224       1.114      3.3313E-03
   4    9.997       8.887       7.776       6.666       5.555       4.445       3.335       2.224       1.114      3.3313E-03
   5    9.997       8.887       7.776       6.666       5.555       4.445       3.335       2.224       1.114      3.3313E-03
   6    9.997       8.887       7.776       6.666       5.555       4.445       3.335       2.224       1.114      3.3313E-03
   7    9.997       8.887       7.776       6.666       5.555       4.445       3.335       2.224       1.114      3.3313E-03
   8    9.997       8.887       7.776       6.666       5.555       4.445       3.335       2.224       1.114      3.3313E-03
   9    9.997       8.887       7.776       6.666       5.555       4.445       3.335       2.224       1.114      3.3313E-03
  10    9.997       8.887       7.776       6.666       5.555       4.445       3.335       2.224       1.114      3.3313E-03
1
              HEAD IN LAYER   3 AT END OF TIME STEP  73 IN STRESS PERIOD    2
  ---------------------------------------------------------------------------

            1           2           3           4           5           6           7           8           9          10
 ........................................................................................................................
   1    9.997       8.887       7.776       6.666       5.555       4.445       3.335       2.224       1.114      3.3313E-03
   2    9.997       8.887       7.776       6.666       5.555       4.445       3.335       2.224       1.114      3.3313E-03
   3    9.997       8.887       7.776       6.666       5.555       4.445       3.335       2.224       1.114      3.3313E-03
   4    9.997       8.887       7.776       6.666       5.555       4.445       3.335       2.224       1.114      3.3313E-03
   5    9.997       8.887       7.776       6.666       5.555       4.445       3.335       2.224       1.114      3.3313E-03
   6    9.997       8.887       7.776       6.666       5.555       4.445       3.335       2.224       1.114      3.3313E-03
   7    9.997       8.887       7.776       6.666       5.555       4.445       3.335       2.224       1.114      3.3313E-03
   8    9.997       8.887       7.776       6.666       5.555       4.445       3.335       2.224       1.114      3.3313E-03
   9    9.997       8.887       7.776       6.666       5.555       4.445       3.335       2.224       1.114      3.3313E-03
  10    9.997       8.887       7.776       6.666       5.555       4.445       3.335       2.224       1.114      3.3313E-03
1
              HEAD IN LAYER   4 AT END OF TIME STEP  73 IN STRESS PERIOD    2
  ---------------------------------------------------------------------------

            1           2           3           4           5           6           7           8           9          10
 ........................................................................................................................
   1    9.997       8.887       7.776       6.666       5.555       4.445       3.335       2.224       1.114      3.3313E-03
   2    9.997       8.887       7.776       6.666       5.555       4.445       3.335       2.224       1.114      3.3313E-03
   3    9.997       8.887       7.776       6.666       5.555       4.445       3.335       2.224       1.114      3.3313E-03
   4    9.997       8.887       7.776       6.666       5.555       4.445       3.335       2.224       1.114      3.3313E-03
   5    9.997       8.887       7.776       6.666       5.555       4.445       3.335       2.224       1.114      3.3313E-03
   6    9.997       8.887       7.776       6.666       5.555       4.445       3.335       2.224       1.114      3.3313E-03
   7    9.997       8.887       7.776       6.666       5.555       4.445       3.335       2.224       1.114      3.3313E-03
   8    9.997       8.887       7.776       6.666       5.555       4.445       3.335       2.224       1.114      3.3313E-03
   9    9.997       8.887       7.776       6.666       5.555       4.445       3.335       2.224       1.114      3.3313E-03
  10    9.997       8.887       7.776       6.666       5.555       4.445       3.335       2.224       1.114      3.3313E-03

 HEAD WILL BE SAVED ON UNIT   51 AT END OF TIME STEP   73, STRESS PERIOD    2

 DRAWDOWN WILL BE SAVED ON UNIT   52 AT END OF TIME STEP   73, STRESS PERIOD    2
1
  VOLUMETRIC BUDGET FOR ENTIRE MODEL AT END OF TIME STEP   73, STRESS PERIOD   2
  ------------------------------------------------------------------------------

     CUMULATIVE VOLUMES      L**3       RATES FOR THIS TIME STEP      L**3/T
     ------------------                 ------------------------

           IN:                                      IN:
           ---                                      ---
             STORAGE =       1.0477E-08               STORAGE =           0.0000
       CONSTANT HEAD =           0.0000         CONSTANT HEAD =           0.0000
               WELLS =           0.0000                 WELLS =           0.0000
     HEAD DEP BOUNDS =       49307.0703       HEAD DEP BOUNDS =         666.3123

            TOTAL IN =       49307.0703              TOTAL IN =         666.3123

          OUT:                                     OUT:
          ----                                     ----
             STORAGE =       5.2387E-08               STORAGE =           0.0000
       CONSTANT HEAD =           0.0000         CONSTANT HEAD =           0.0000
               WELLS =           0.0000                 WELLS =           0.0000
     HEAD DEP BOUNDS =       49303.1719       HEAD DEP BOUNDS =         666.2595

           TOTAL OUT =       49303.1719             TOTAL OUT =         666.2595

            IN - OUT =           3.8984              IN - OUT =       5.2795E-02

 PERCENT DISCREPANCY =           0.01     PERCENT DISCREPANCY =           0.01






         TIME SUMMARY AT END OF TIME STEP   73 IN STRESS PERIOD    2
                    SECONDS     MINUTES      HOURS       DAYS        YEARS
                    -----------------------------------------------------------
   TIME STEP LENGTH  86400.      1440.0      24.000      1.0000     2.73785E-03
 STRESS PERIOD TIME 6.30720E+06 1.05120E+05  1752.0      73.000     0.19986    
         TOTAL TIME 6.39360E+06 1.06560E+05  1776.0      74.000     0.20260    
1
 
 SOLVING FOR HEAD 

 OUTPUT CONTROL FOR STRESS PERIOD    2   TIME STEP   74
    SAVE HEAD FOR ALL LAYERS
    SAVE DRAWDOWN FOR ALL LAYERS
    SAVE BUDGET
    PRINT HEAD FOR ALL LAYERS
    PRINT BUDGET
 UBDSV1 SAVING "         STORAGE" ON UNIT  53 AT TIME STEP 74, STRESS PERIOD   2
 UBDSV2 SAVING "   CONSTANT HEAD" ON UNIT  53 AT TIME STEP 74, STRESS PERIOD   2
 UBDSV1 SAVING "FLOW RIGHT FACE " ON UNIT  53 AT TIME STEP 74, STRESS PERIOD   2
 UBDSV1 SAVING "FLOW FRONT FACE " ON UNIT  53 AT TIME STEP 74, STRESS PERIOD   2
 UBDSV1 SAVING "FLOW LOWER FACE " ON UNIT  53 AT TIME STEP 74, STRESS PERIOD   2
1
              HEAD IN LAYER   1 AT END OF TIME STEP  74 IN STRESS PERIOD    2
  ---------------------------------------------------------------------------

            1           2           3           4           5           6           7           8           9          10
 ........................................................................................................................
   1    9.997       8.887       7.776       6.666       5.555       4.445       3.335       2.224       1.114      3.3313E-03
   2    9.997       8.887       7.776       6.666       5.555       4.445       3.335       2.224       1.114      3.3313E-03
   3    9.997       8.887       7.776       6.666       5.555       4.445       3.335       2.224       1.114      3.3313E-03
   4    9.997       8.887       7.776       6.666       5.555       4.445       3.335       2.224       1.114      3.3313E-03
   5    9.997       8.887       7.776       6.666       5.555       4.445       3.335       2.224       1.114      3.3313E-03
   6    9.997       8.887       7.776       6.666       5.555       4.445       3.335       2.224       1.114      3.3313E-03
   7    9.997       8.887       7.776       6.666       5.555       4.445       3.335       2.224       1.114      3.3313E-03
   8    9.997       8.887       7.776       6.666       5.555       4.445       3.335       2.224       1.114      3.3313E-03
   9    9.997       8.887       7.776       6.666       5.555       4.445       3.335       2.224       1.114      3.3313E-03
  10    9.997       8.887       7.776       6.666       5.555       4.445       3.335       2.224       1.114      3.3313E-03
1
              HEAD IN LAYER   2 AT END OF TIME STEP  74 IN STRESS PERIOD    2
  ---------------------------------------------------------------------------

            1           2           3           4           5           6           7           8           9          10
 ........................................................................................................................
   1    9.997       8.887       7.776       6.666       5.555       4.445       3.335       2.224       1.114      3.3313E-03
   2    9.997       8.887       7.776       6.666       5.555       4.445       3.335       2.224       1.114      3.3313E-03
   3    9.997       8.887       7.776       6.666       5.555       4.445       3.335       2.224       1.114      3.3313E-03
   4    9.997       8.887       7.776       6.666       5.555       4.445       3.335       2.224       1.114      3.3313E-03
   5    9.997       8.887       7.776       6.666       5.555       4.445       3.335       2.224       1.114      3.3313E-03
   6    9.997       8.887       7.776       6.666       5.555       4.445       3.335       2.224       1.114      3.3313E-03
   7    9.997       8.887       7.776       6.666       5.555       4.445       3.335       2.224       1.114      3.3313E-03
   8    9.997       8.887       7.776       6.666       5.555       4.445       3.335       2.224       1.114      3.3313E-03
   9    9.997       8.887       7.776       6.666       5.555       4.445       3.335       2.224       1.114      3.3313E-03
  10    9.997       8.887       7.776       6.666       5.555       4.445       3.335       2.224       1.114      3.3313E-03
1
              HEAD IN LAYER   3 AT END OF TIME STEP  74 IN STRESS PERIOD    2
  ---------------------------------------------------------------------------

            1           2           3           4           5           6           7           8           9          10
 ........................................................................................................................
   1    9.997       8.887       7.776       6.666       5.555       4.445       3.335       2.224       1.114      3.3313E-03
   2    9.997       8.887       7.776       6.666       5.555       4.445       3.335       2.224       1.114      3.3313E-03
   3    9.997       8.887       7.776       6.666       5.555       4.445       3.335       2.224       1.114      3.3313E-03
   4    9.997       8.887       7.776       6.666       5.555       4.445       3.335       2.224       1.114      3.3313E-03
   5    9.997       8.887       7.776       6.666       5.555       4.445       3.335       2.224       1.114      3.3313E-03
   6    9.997       8.887       7.776       6.666       5.555       4.445       3.335       2.224       1.114      3.3313E-03
   7    9.997       8.887       7.776       6.666       5.555       4.445       3.335       2.224       1.114      3.3313E-03
   8    9.997       8.887       7.776       6.666       5.555       4.445       3.335       2.224       1.114      3.3313E-03
   9    9.997       8.887       7.776       6.666       5.555       4.445       3.335       2.224       1.114      3.3313E-03
  10    9.997       8.887       7.776       6.666       5.555       4.445       3.335       2.224       1.114      3.3313E-03
1
              HEAD IN LAYER   4 AT END OF TIME STEP  74 IN STRESS PERIOD    2
  ---------------------------------------------------------------------------

            1           2           3           4           5           6           7           8           9          10
 ........................................................................................................................
   1    9.997       8.887       7.776       6.666       5.555       4.445       3.335       2.224       1.114      3.3313E-03
   2    9.997       8.887       7.776       6.666       5.555       4.445       3.335       2.224       1.114      3.3313E-03
   3    9.997       8.887       7.776       6.666       5.555       4.445       3.335       2.224       1.114      3.3313E-03
   4    9.997       8.887       7.776       6.666       5.555       4.445       3.335       2.224       1.114      3.3313E-03
   5    9.997       8.887       7.776       6.666       5.555       4.445       3.335       2.224       1.114      3.3313E-03
   6    9.997       8.887       7.776       6.666       5.555       4.445       3.335       2.224       1.114      3.3313E-03
   7    9.997       8.887       7.776       6.666       5.555       4.445       3.335       2.224       1.114      3.3313E-03
   8    9.997       8.887       7.776       6.666       5.555       4.445       3.335       2.224       1.114      3.3313E-03
   9    9.997       8.887       7.776       6.666       5.555       4.445       3.335       2.224       1.114      3.3313E-03
  10    9.997       8.887       7.776       6.666       5.555       4.445       3.335       2.224       1.114      3.3313E-03

 HEAD WILL BE SAVED ON UNIT   51 AT END OF TIME STEP   74, STRESS PERIOD    2

 DRAWDOWN WILL BE SAVED ON UNIT   52 AT END OF TIME STEP   74, STRESS PERIOD    2
1
  VOLUMETRIC BUDGET FOR ENTIRE MODEL AT END OF TIME STEP   74, STRESS PERIOD   2
  ------------------------------------------------------------------------------

     CUMULATIVE VOLUMES      L**3       RATES FOR THIS TIME STEP      L**3/T
     ------------------                 ------------------------

           IN:                                      IN:
           ---                                      ---
             STORAGE =       1.0477E-08               STORAGE =           0.0000
       CONSTANT HEAD =           0.0000         CONSTANT HEAD =           0.0000
               WELLS =           0.0000                 WELLS =           0.0000
     HEAD DEP BOUNDS =       49973.3828       HEAD DEP BOUNDS =         666.3123

            TOTAL IN =       49973.3828              TOTAL IN =         666.3123

          OUT:                                     OUT:
          ----                                     ----
             STORAGE =       5.2387E-08               STORAGE =           0.0000
       CONSTANT HEAD =           0.0000         CONSTANT HEAD =           0.0000
               WELLS =           0.0000                 WELLS =           0.0000
     HEAD DEP BOUNDS =       49969.4297       HEAD DEP BOUNDS =         666.2595

           TOTAL OUT =       49969.4297             TOTAL OUT =         666.2595

            IN - OUT =           3.9531              IN - OUT =       5.2795E-02

 PERCENT DISCREPANCY =           0.01     PERCENT DISCREPANCY =           0.01






         TIME SUMMARY AT END OF TIME STEP   74 IN STRESS PERIOD    2
                    SECONDS     MINUTES      HOURS       DAYS        YEARS
                    -----------------------------------------------------------
   TIME STEP LENGTH  86400.      1440.0      24.000      1.0000     2.73785E-03
 STRESS PERIOD TIME 6.39360E+06 1.06560E+05  1776.0      74.000     0.20260    
         TOTAL TIME 6.48000E+06 1.08000E+05  1800.0      75.000     0.20534    
1
 
 SOLVING FOR HEAD 

 OUTPUT CONTROL FOR STRESS PERIOD    2   TIME STEP   75
    SAVE HEAD FOR ALL LAYERS
    SAVE DRAWDOWN FOR ALL LAYERS
    SAVE BUDGET
    PRINT HEAD FOR ALL LAYERS
    PRINT BUDGET
 UBDSV1 SAVING "         STORAGE" ON UNIT  53 AT TIME STEP 75, STRESS PERIOD   2
 UBDSV2 SAVING "   CONSTANT HEAD" ON UNIT  53 AT TIME STEP 75, STRESS PERIOD   2
 UBDSV1 SAVING "FLOW RIGHT FACE " ON UNIT  53 AT TIME STEP 75, STRESS PERIOD   2
 UBDSV1 SAVING "FLOW FRONT FACE " ON UNIT  53 AT TIME STEP 75, STRESS PERIOD   2
 UBDSV1 SAVING "FLOW LOWER FACE " ON UNIT  53 AT TIME STEP 75, STRESS PERIOD   2
1
              HEAD IN LAYER   1 AT END OF TIME STEP  75 IN STRESS PERIOD    2
  ---------------------------------------------------------------------------

            1           2           3           4           5           6           7           8           9          10
 ........................................................................................................................
   1    9.997       8.887       7.776       6.666       5.555       4.445       3.335       2.224       1.114      3.3313E-03
   2    9.997       8.887       7.776       6.666       5.555       4.445       3.335       2.224       1.114      3.3313E-03
   3    9.997       8.887       7.776       6.666       5.555       4.445       3.335       2.224       1.114      3.3313E-03
   4    9.997       8.887       7.776       6.666       5.555       4.445       3.335       2.224       1.114      3.3313E-03
   5    9.997       8.887       7.776       6.666       5.555       4.445       3.335       2.224       1.114      3.3313E-03
   6    9.997       8.887       7.776       6.666       5.555       4.445       3.335       2.224       1.114      3.3313E-03
   7    9.997       8.887       7.776       6.666       5.555       4.445       3.335       2.224       1.114      3.3313E-03
   8    9.997       8.887       7.776       6.666       5.555       4.445       3.335       2.224       1.114      3.3313E-03
   9    9.997       8.887       7.776       6.666       5.555       4.445       3.335       2.224       1.114      3.3313E-03
  10    9.997       8.887       7.776       6.666       5.555       4.445       3.335       2.224       1.114      3.3313E-03
1
              HEAD IN LAYER   2 AT END OF TIME STEP  75 IN STRESS PERIOD    2
  ---------------------------------------------------------------------------

            1           2           3           4           5           6           7           8           9          10
 ........................................................................................................................
   1    9.997       8.887       7.776       6.666       5.555       4.445       3.335       2.224       1.114      3.3313E-03
   2    9.997       8.887       7.776       6.666       5.555       4.445       3.335       2.224       1.114      3.3313E-03
   3    9.997       8.887       7.776       6.666       5.555       4.445       3.335       2.224       1.114      3.3313E-03
   4    9.997       8.887       7.776       6.666       5.555       4.445       3.335       2.224       1.114      3.3313E-03
   5    9.997       8.887       7.776       6.666       5.555       4.445       3.335       2.224       1.114      3.3313E-03
   6    9.997       8.887       7.776       6.666       5.555       4.445       3.335       2.224       1.114      3.3313E-03
   7    9.997       8.887       7.776       6.666       5.555       4.445       3.335       2.224       1.114      3.3313E-03
   8    9.997       8.887       7.776       6.666       5.555       4.445       3.335       2.224       1.114      3.3313E-03
   9    9.997       8.887       7.776       6.666       5.555       4.445       3.335       2.224       1.114      3.3313E-03
  10    9.997       8.887       7.776       6.666       5.555       4.445       3.335       2.224       1.114      3.3313E-03
1
              HEAD IN LAYER   3 AT END OF TIME STEP  75 IN STRESS PERIOD    2
  ---------------------------------------------------------------------------

            1           2           3           4           5           6           7           8           9          10
 ........................................................................................................................
   1    9.997       8.887       7.776       6.666       5.555       4.445       3.335       2.224       1.114      3.3313E-03
   2    9.997       8.887       7.776       6.666       5.555       4.445       3.335       2.224       1.114      3.3313E-03
   3    9.997       8.887       7.776       6.666       5.555       4.445       3.335       2.224       1.114      3.3313E-03
   4    9.997       8.887       7.776       6.666       5.555       4.445       3.335       2.224       1.114      3.3313E-03
   5    9.997       8.887       7.776       6.666       5.555       4.445       3.335       2.224       1.114      3.3313E-03
   6    9.997       8.887       7.776       6.666       5.555       4.445       3.335       2.224       1.114      3.3313E-03
   7    9.997       8.887       7.776       6.666       5.555       4.445       3.335       2.224       1.114      3.3313E-03
   8    9.997       8.887       7.776       6.666       5.555       4.445       3.335       2.224       1.114      3.3313E-03
   9    9.997       8.887       7.776       6.666       5.555       4.445       3.335       2.224       1.114      3.3313E-03
  10    9.997       8.887       7.776       6.666       5.555       4.445       3.335       2.224       1.114      3.3313E-03
1
              HEAD IN LAYER   4 AT END OF TIME STEP  75 IN STRESS PERIOD    2
  ---------------------------------------------------------------------------

            1           2           3           4           5           6           7           8           9          10
 ........................................................................................................................
   1    9.997       8.887       7.776       6.666       5.555       4.445       3.335       2.224       1.114      3.3313E-03
   2    9.997       8.887       7.776       6.666       5.555       4.445       3.335       2.224       1.114      3.3313E-03
   3    9.997       8.887       7.776       6.666       5.555       4.445       3.335       2.224       1.114      3.3313E-03
   4    9.997       8.887       7.776       6.666       5.555       4.445       3.335       2.224       1.114      3.3313E-03
   5    9.997       8.887       7.776       6.666       5.555       4.445       3.335       2.224       1.114      3.3313E-03
   6    9.997       8.887       7.776       6.666       5.555       4.445       3.335       2.224       1.114      3.3313E-03
   7    9.997       8.887       7.776       6.666       5.555       4.445       3.335       2.224       1.114      3.3313E-03
   8    9.997       8.887       7.776       6.666       5.555       4.445       3.335       2.224       1.114      3.3313E-03
   9    9.997       8.887       7.776       6.666       5.555       4.445       3.335       2.224       1.114      3.3313E-03
  10    9.997       8.887       7.776       6.666       5.555       4.445       3.335       2.224       1.114      3.3313E-03

 HEAD WILL BE SAVED ON UNIT   51 AT END OF TIME STEP   75, STRESS PERIOD    2

 DRAWDOWN WILL BE SAVED ON UNIT   52 AT END OF TIME STEP   75, STRESS PERIOD    2
1
  VOLUMETRIC BUDGET FOR ENTIRE MODEL AT END OF TIME STEP   75, STRESS PERIOD   2
  ------------------------------------------------------------------------------

     CUMULATIVE VOLUMES      L**3       RATES FOR THIS TIME STEP      L**3/T
     ------------------                 ------------------------

           IN:                                      IN:
           ---                                      ---
             STORAGE =       1.0477E-08               STORAGE =           0.0000
       CONSTANT HEAD =           0.0000         CONSTANT HEAD =           0.0000
               WELLS =           0.0000                 WELLS =           0.0000
     HEAD DEP BOUNDS =       50639.6953       HEAD DEP BOUNDS =         666.3123

            TOTAL IN =       50639.6953              TOTAL IN =         666.3123

          OUT:                                     OUT:
          ----                                     ----
             STORAGE =       5.2387E-08               STORAGE =           0.0000
       CONSTANT HEAD =           0.0000         CONSTANT HEAD =           0.0000
               WELLS =           0.0000                 WELLS =           0.0000
     HEAD DEP BOUNDS =       50635.6875       HEAD DEP BOUNDS =         666.2595

           TOTAL OUT =       50635.6875             TOTAL OUT =         666.2595

            IN - OUT =           4.0078              IN - OUT =       5.2795E-02

 PERCENT DISCREPANCY =           0.01     PERCENT DISCREPANCY =           0.01






         TIME SUMMARY AT END OF TIME STEP   75 IN STRESS PERIOD    2
                    SECONDS     MINUTES      HOURS       DAYS        YEARS
                    -----------------------------------------------------------
   TIME STEP LENGTH  86400.      1440.0      24.000      1.0000     2.73785E-03
 STRESS PERIOD TIME 6.48000E+06 1.08000E+05  1800.0      75.000     0.20534    
         TOTAL TIME 6.56640E+06 1.09440E+05  1824.0      76.000     0.20808    
1
 
 SOLVING FOR HEAD 

 OUTPUT CONTROL FOR STRESS PERIOD    2   TIME STEP   76
    SAVE HEAD FOR ALL LAYERS
    SAVE DRAWDOWN FOR ALL LAYERS
    SAVE BUDGET
    PRINT HEAD FOR ALL LAYERS
    PRINT BUDGET
 UBDSV1 SAVING "         STORAGE" ON UNIT  53 AT TIME STEP 76, STRESS PERIOD   2
 UBDSV2 SAVING "   CONSTANT HEAD" ON UNIT  53 AT TIME STEP 76, STRESS PERIOD   2
 UBDSV1 SAVING "FLOW RIGHT FACE " ON UNIT  53 AT TIME STEP 76, STRESS PERIOD   2
 UBDSV1 SAVING "FLOW FRONT FACE " ON UNIT  53 AT TIME STEP 76, STRESS PERIOD   2
 UBDSV1 SAVING "FLOW LOWER FACE " ON UNIT  53 AT TIME STEP 76, STRESS PERIOD   2
1
              HEAD IN LAYER   1 AT END OF TIME STEP  76 IN STRESS PERIOD    2
  ---------------------------------------------------------------------------

            1           2           3           4           5           6           7           8           9          10
 ........................................................................................................................
   1    9.997       8.887       7.776       6.666       5.555       4.445       3.335       2.224       1.114      3.3313E-03
   2    9.997       8.887       7.776       6.666       5.555       4.445       3.335       2.224       1.114      3.3313E-03
   3    9.997       8.887       7.776       6.666       5.555       4.445       3.335       2.224       1.114      3.3313E-03
   4    9.997       8.887       7.776       6.666       5.555       4.445       3.335       2.224       1.114      3.3313E-03
   5    9.997       8.887       7.776       6.666       5.555       4.445       3.335       2.224       1.114      3.3313E-03
   6    9.997       8.887       7.776       6.666       5.555       4.445       3.335       2.224       1.114      3.3313E-03
   7    9.997       8.887       7.776       6.666       5.555       4.445       3.335       2.224       1.114      3.3313E-03
   8    9.997       8.887       7.776       6.666       5.555       4.445       3.335       2.224       1.114      3.3313E-03
   9    9.997       8.887       7.776       6.666       5.555       4.445       3.335       2.224       1.114      3.3313E-03
  10    9.997       8.887       7.776       6.666       5.555       4.445       3.335       2.224       1.114      3.3313E-03
1
              HEAD IN LAYER   2 AT END OF TIME STEP  76 IN STRESS PERIOD    2
  ---------------------------------------------------------------------------

            1           2           3           4           5           6           7           8           9          10
 ........................................................................................................................
   1    9.997       8.887       7.776       6.666       5.555       4.445       3.335       2.224       1.114      3.3313E-03
   2    9.997       8.887       7.776       6.666       5.555       4.445       3.335       2.224       1.114      3.3313E-03
   3    9.997       8.887       7.776       6.666       5.555       4.445       3.335       2.224       1.114      3.3313E-03
   4    9.997       8.887       7.776       6.666       5.555       4.445       3.335       2.224       1.114      3.3313E-03
   5    9.997       8.887       7.776       6.666       5.555       4.445       3.335       2.224       1.114      3.3313E-03
   6    9.997       8.887       7.776       6.666       5.555       4.445       3.335       2.224       1.114      3.3313E-03
   7    9.997       8.887       7.776       6.666       5.555       4.445       3.335       2.224       1.114      3.3313E-03
   8    9.997       8.887       7.776       6.666       5.555       4.445       3.335       2.224       1.114      3.3313E-03
   9    9.997       8.887       7.776       6.666       5.555       4.445       3.335       2.224       1.114      3.3313E-03
  10    9.997       8.887       7.776       6.666       5.555       4.445       3.335       2.224       1.114      3.3313E-03
1
              HEAD IN LAYER   3 AT END OF TIME STEP  76 IN STRESS PERIOD    2
  ---------------------------------------------------------------------------

            1           2           3           4           5           6           7           8           9          10
 ........................................................................................................................
   1    9.997       8.887       7.776       6.666       5.555       4.445       3.335       2.224       1.114      3.3313E-03
   2    9.997       8.887       7.776       6.666       5.555       4.445       3.335       2.224       1.114      3.3313E-03
   3    9.997       8.887       7.776       6.666       5.555       4.445       3.335       2.224       1.114      3.3313E-03
   4    9.997       8.887       7.776       6.666       5.555       4.445       3.335       2.224       1.114      3.3313E-03
   5    9.997       8.887       7.776       6.666       5.555       4.445       3.335       2.224       1.114      3.3313E-03
   6    9.997       8.887       7.776       6.666       5.555       4.445       3.335       2.224       1.114      3.3313E-03
   7    9.997       8.887       7.776       6.666       5.555       4.445       3.335       2.224       1.114      3.3313E-03
   8    9.997       8.887       7.776       6.666       5.555       4.445       3.335       2.224       1.114      3.3313E-03
   9    9.997       8.887       7.776       6.666       5.555       4.445       3.335       2.224       1.114      3.3313E-03
  10    9.997       8.887       7.776       6.666       5.555       4.445       3.335       2.224       1.114      3.3313E-03
1
              HEAD IN LAYER   4 AT END OF TIME STEP  76 IN STRESS PERIOD    2
  ---------------------------------------------------------------------------

            1           2           3           4           5           6           7           8           9          10
 ........................................................................................................................
   1    9.997       8.887       7.776       6.666       5.555       4.445       3.335       2.224       1.114      3.3313E-03
   2    9.997       8.887       7.776       6.666       5.555       4.445       3.335       2.224       1.114      3.3313E-03
   3    9.997       8.887       7.776       6.666       5.555       4.445       3.335       2.224       1.114      3.3313E-03
   4    9.997       8.887       7.776       6.666       5.555       4.445       3.335       2.224       1.114      3.3313E-03
   5    9.997       8.887       7.776       6.666       5.555       4.445       3.335       2.224       1.114      3.3313E-03
   6    9.997       8.887       7.776       6.666       5.555       4.445       3.335       2.224       1.114      3.3313E-03
   7    9.997       8.887       7.776       6.666       5.555       4.445       3.335       2.224       1.114      3.3313E-03
   8    9.997       8.887       7.776       6.666       5.555       4.445       3.335       2.224       1.114      3.3313E-03
   9    9.997       8.887       7.776       6.666       5.555       4.445       3.335       2.224       1.114      3.3313E-03
  10    9.997       8.887       7.776       6.666       5.555       4.445       3.335       2.224       1.114      3.3313E-03

 HEAD WILL BE SAVED ON UNIT   51 AT END OF TIME STEP   76, STRESS PERIOD    2

 DRAWDOWN WILL BE SAVED ON UNIT   52 AT END OF TIME STEP   76, STRESS PERIOD    2
1
  VOLUMETRIC BUDGET FOR ENTIRE MODEL AT END OF TIME STEP   76, STRESS PERIOD   2
  ------------------------------------------------------------------------------

     CUMULATIVE VOLUMES      L**3       RATES FOR THIS TIME STEP      L**3/T
     ------------------                 ------------------------

           IN:                                      IN:
           ---                                      ---
             STORAGE =       1.0477E-08               STORAGE =           0.0000
       CONSTANT HEAD =           0.0000         CONSTANT HEAD =           0.0000
               WELLS =           0.0000                 WELLS =           0.0000
     HEAD DEP BOUNDS =       51306.0078       HEAD DEP BOUNDS =         666.3123

            TOTAL IN =       51306.0078              TOTAL IN =         666.3123

          OUT:                                     OUT:
          ----                                     ----
             STORAGE =       5.2387E-08               STORAGE =           0.0000
       CONSTANT HEAD =           0.0000         CONSTANT HEAD =           0.0000
               WELLS =           0.0000                 WELLS =           0.0000
     HEAD DEP BOUNDS =       51301.9453       HEAD DEP BOUNDS =         666.2595

           TOTAL OUT =       51301.9453             TOTAL OUT =         666.2595

            IN - OUT =           4.0625              IN - OUT =       5.2795E-02

 PERCENT DISCREPANCY =           0.01     PERCENT DISCREPANCY =           0.01






         TIME SUMMARY AT END OF TIME STEP   76 IN STRESS PERIOD    2
                    SECONDS     MINUTES      HOURS       DAYS        YEARS
                    -----------------------------------------------------------
   TIME STEP LENGTH  86400.      1440.0      24.000      1.0000     2.73785E-03
 STRESS PERIOD TIME 6.56640E+06 1.09440E+05  1824.0      76.000     0.20808    
         TOTAL TIME 6.65280E+06 1.10880E+05  1848.0      77.000     0.21081    
1
 
 SOLVING FOR HEAD 

 OUTPUT CONTROL FOR STRESS PERIOD    2   TIME STEP   77
    SAVE HEAD FOR ALL LAYERS
    SAVE DRAWDOWN FOR ALL LAYERS
    SAVE BUDGET
    PRINT HEAD FOR ALL LAYERS
    PRINT BUDGET
 UBDSV1 SAVING "         STORAGE" ON UNIT  53 AT TIME STEP 77, STRESS PERIOD   2
 UBDSV2 SAVING "   CONSTANT HEAD" ON UNIT  53 AT TIME STEP 77, STRESS PERIOD   2
 UBDSV1 SAVING "FLOW RIGHT FACE " ON UNIT  53 AT TIME STEP 77, STRESS PERIOD   2
 UBDSV1 SAVING "FLOW FRONT FACE " ON UNIT  53 AT TIME STEP 77, STRESS PERIOD   2
 UBDSV1 SAVING "FLOW LOWER FACE " ON UNIT  53 AT TIME STEP 77, STRESS PERIOD   2
1
              HEAD IN LAYER   1 AT END OF TIME STEP  77 IN STRESS PERIOD    2
  ---------------------------------------------------------------------------

            1           2           3           4           5           6           7           8           9          10
 ........................................................................................................................
   1    9.997       8.887       7.776       6.666       5.555       4.445       3.335       2.224       1.114      3.3313E-03
   2    9.997       8.887       7.776       6.666       5.555       4.445       3.335       2.224       1.114      3.3313E-03
   3    9.997       8.887       7.776       6.666       5.555       4.445       3.335       2.224       1.114      3.3313E-03
   4    9.997       8.887       7.776       6.666       5.555       4.445       3.335       2.224       1.114      3.3313E-03
   5    9.997       8.887       7.776       6.666       5.555       4.445       3.335       2.224       1.114      3.3313E-03
   6    9.997       8.887       7.776       6.666       5.555       4.445       3.335       2.224       1.114      3.3313E-03
   7    9.997       8.887       7.776       6.666       5.555       4.445       3.335       2.224       1.114      3.3313E-03
   8    9.997       8.887       7.776       6.666       5.555       4.445       3.335       2.224       1.114      3.3313E-03
   9    9.997       8.887       7.776       6.666       5.555       4.445       3.335       2.224       1.114      3.3313E-03
  10    9.997       8.887       7.776       6.666       5.555       4.445       3.335       2.224       1.114      3.3313E-03
1
              HEAD IN LAYER   2 AT END OF TIME STEP  77 IN STRESS PERIOD    2
  ---------------------------------------------------------------------------

            1           2           3           4           5           6           7           8           9          10
 ........................................................................................................................
   1    9.997       8.887       7.776       6.666       5.555       4.445       3.335       2.224       1.114      3.3313E-03
   2    9.997       8.887       7.776       6.666       5.555       4.445       3.335       2.224       1.114      3.3313E-03
   3    9.997       8.887       7.776       6.666       5.555       4.445       3.335       2.224       1.114      3.3313E-03
   4    9.997       8.887       7.776       6.666       5.555       4.445       3.335       2.224       1.114      3.3313E-03
   5    9.997       8.887       7.776       6.666       5.555       4.445       3.335       2.224       1.114      3.3313E-03
   6    9.997       8.887       7.776       6.666       5.555       4.445       3.335       2.224       1.114      3.3313E-03
   7    9.997       8.887       7.776       6.666       5.555       4.445       3.335       2.224       1.114      3.3313E-03
   8    9.997       8.887       7.776       6.666       5.555       4.445       3.335       2.224       1.114      3.3313E-03
   9    9.997       8.887       7.776       6.666       5.555       4.445       3.335       2.224       1.114      3.3313E-03
  10    9.997       8.887       7.776       6.666       5.555       4.445       3.335       2.224       1.114      3.3313E-03
1
              HEAD IN LAYER   3 AT END OF TIME STEP  77 IN STRESS PERIOD    2
  ---------------------------------------------------------------------------

            1           2           3           4           5           6           7           8           9          10
 ........................................................................................................................
   1    9.997       8.887       7.776       6.666       5.555       4.445       3.335       2.224       1.114      3.3313E-03
   2    9.997       8.887       7.776       6.666       5.555       4.445       3.335       2.224       1.114      3.3313E-03
   3    9.997       8.887       7.776       6.666       5.555       4.445       3.335       2.224       1.114      3.3313E-03
   4    9.997       8.887       7.776       6.666       5.555       4.445       3.335       2.224       1.114      3.3313E-03
   5    9.997       8.887       7.776       6.666       5.555       4.445       3.335       2.224       1.114      3.3313E-03
   6    9.997       8.887       7.776       6.666       5.555       4.445       3.335       2.224       1.114      3.3313E-03
   7    9.997       8.887       7.776       6.666       5.555       4.445       3.335       2.224       1.114      3.3313E-03
   8    9.997       8.887       7.776       6.666       5.555       4.445       3.335       2.224       1.114      3.3313E-03
   9    9.997       8.887       7.776       6.666       5.555       4.445       3.335       2.224       1.114      3.3313E-03
  10    9.997       8.887       7.776       6.666       5.555       4.445       3.335       2.224       1.114      3.3313E-03
1
              HEAD IN LAYER   4 AT END OF TIME STEP  77 IN STRESS PERIOD    2
  ---------------------------------------------------------------------------

            1           2           3           4           5           6           7           8           9          10
 ........................................................................................................................
   1    9.997       8.887       7.776       6.666       5.555       4.445       3.335       2.224       1.114      3.3313E-03
   2    9.997       8.887       7.776       6.666       5.555       4.445       3.335       2.224       1.114      3.3313E-03
   3    9.997       8.887       7.776       6.666       5.555       4.445       3.335       2.224       1.114      3.3313E-03
   4    9.997       8.887       7.776       6.666       5.555       4.445       3.335       2.224       1.114      3.3313E-03
   5    9.997       8.887       7.776       6.666       5.555       4.445       3.335       2.224       1.114      3.3313E-03
   6    9.997       8.887       7.776       6.666       5.555       4.445       3.335       2.224       1.114      3.3313E-03
   7    9.997       8.887       7.776       6.666       5.555       4.445       3.335       2.224       1.114      3.3313E-03
   8    9.997       8.887       7.776       6.666       5.555       4.445       3.335       2.224       1.114      3.3313E-03
   9    9.997       8.887       7.776       6.666       5.555       4.445       3.335       2.224       1.114      3.3313E-03
  10    9.997       8.887       7.776       6.666       5.555       4.445       3.335       2.224       1.114      3.3313E-03

 HEAD WILL BE SAVED ON UNIT   51 AT END OF TIME STEP   77, STRESS PERIOD    2

 DRAWDOWN WILL BE SAVED ON UNIT   52 AT END OF TIME STEP   77, STRESS PERIOD    2
1
  VOLUMETRIC BUDGET FOR ENTIRE MODEL AT END OF TIME STEP   77, STRESS PERIOD   2
  ------------------------------------------------------------------------------

     CUMULATIVE VOLUMES      L**3       RATES FOR THIS TIME STEP      L**3/T
     ------------------                 ------------------------

           IN:                                      IN:
           ---                                      ---
             STORAGE =       1.0477E-08               STORAGE =           0.0000
       CONSTANT HEAD =           0.0000         CONSTANT HEAD =           0.0000
               WELLS =           0.0000                 WELLS =           0.0000
     HEAD DEP BOUNDS =       51972.3203       HEAD DEP BOUNDS =         666.3123

            TOTAL IN =       51972.3203              TOTAL IN =         666.3123

          OUT:                                     OUT:
          ----                                     ----
             STORAGE =       5.2387E-08               STORAGE =           0.0000
       CONSTANT HEAD =           0.0000         CONSTANT HEAD =           0.0000
               WELLS =           0.0000                 WELLS =           0.0000
     HEAD DEP BOUNDS =       51968.2031       HEAD DEP BOUNDS =         666.2595

           TOTAL OUT =       51968.2031             TOTAL OUT =         666.2595

            IN - OUT =           4.1172              IN - OUT =       5.2795E-02

 PERCENT DISCREPANCY =           0.01     PERCENT DISCREPANCY =           0.01






         TIME SUMMARY AT END OF TIME STEP   77 IN STRESS PERIOD    2
                    SECONDS     MINUTES      HOURS       DAYS        YEARS
                    -----------------------------------------------------------
   TIME STEP LENGTH  86400.      1440.0      24.000      1.0000     2.73785E-03
 STRESS PERIOD TIME 6.65280E+06 1.10880E+05  1848.0      77.000     0.21081    
         TOTAL TIME 6.73920E+06 1.12320E+05  1872.0      78.000     0.21355    
1
 
 SOLVING FOR HEAD 

 OUTPUT CONTROL FOR STRESS PERIOD    2   TIME STEP   78
    SAVE HEAD FOR ALL LAYERS
    SAVE DRAWDOWN FOR ALL LAYERS
    SAVE BUDGET
    PRINT HEAD FOR ALL LAYERS
    PRINT BUDGET
 UBDSV1 SAVING "         STORAGE" ON UNIT  53 AT TIME STEP 78, STRESS PERIOD   2
 UBDSV2 SAVING "   CONSTANT HEAD" ON UNIT  53 AT TIME STEP 78, STRESS PERIOD   2
 UBDSV1 SAVING "FLOW RIGHT FACE " ON UNIT  53 AT TIME STEP 78, STRESS PERIOD   2
 UBDSV1 SAVING "FLOW FRONT FACE " ON UNIT  53 AT TIME STEP 78, STRESS PERIOD   2
 UBDSV1 SAVING "FLOW LOWER FACE " ON UNIT  53 AT TIME STEP 78, STRESS PERIOD   2
1
              HEAD IN LAYER   1 AT END OF TIME STEP  78 IN STRESS PERIOD    2
  ---------------------------------------------------------------------------

            1           2           3           4           5           6           7           8           9          10
 ........................................................................................................................
   1    9.997       8.887       7.776       6.666       5.555       4.445       3.335       2.224       1.114      3.3313E-03
   2    9.997       8.887       7.776       6.666       5.555       4.445       3.335       2.224       1.114      3.3313E-03
   3    9.997       8.887       7.776       6.666       5.555       4.445       3.335       2.224       1.114      3.3313E-03
   4    9.997       8.887       7.776       6.666       5.555       4.445       3.335       2.224       1.114      3.3313E-03
   5    9.997       8.887       7.776       6.666       5.555       4.445       3.335       2.224       1.114      3.3313E-03
   6    9.997       8.887       7.776       6.666       5.555       4.445       3.335       2.224       1.114      3.3313E-03
   7    9.997       8.887       7.776       6.666       5.555       4.445       3.335       2.224       1.114      3.3313E-03
   8    9.997       8.887       7.776       6.666       5.555       4.445       3.335       2.224       1.114      3.3313E-03
   9    9.997       8.887       7.776       6.666       5.555       4.445       3.335       2.224       1.114      3.3313E-03
  10    9.997       8.887       7.776       6.666       5.555       4.445       3.335       2.224       1.114      3.3313E-03
1
              HEAD IN LAYER   2 AT END OF TIME STEP  78 IN STRESS PERIOD    2
  ---------------------------------------------------------------------------

            1           2           3           4           5           6           7           8           9          10
 ........................................................................................................................
   1    9.997       8.887       7.776       6.666       5.555       4.445       3.335       2.224       1.114      3.3313E-03
   2    9.997       8.887       7.776       6.666       5.555       4.445       3.335       2.224       1.114      3.3313E-03
   3    9.997       8.887       7.776       6.666       5.555       4.445       3.335       2.224       1.114      3.3313E-03
   4    9.997       8.887       7.776       6.666       5.555       4.445       3.335       2.224       1.114      3.3313E-03
   5    9.997       8.887       7.776       6.666       5.555       4.445       3.335       2.224       1.114      3.3313E-03
   6    9.997       8.887       7.776       6.666       5.555       4.445       3.335       2.224       1.114      3.3313E-03
   7    9.997       8.887       7.776       6.666       5.555       4.445       3.335       2.224       1.114      3.3313E-03
   8    9.997       8.887       7.776       6.666       5.555       4.445       3.335       2.224       1.114      3.3313E-03
   9    9.997       8.887       7.776       6.666       5.555       4.445       3.335       2.224       1.114      3.3313E-03
  10    9.997       8.887       7.776       6.666       5.555       4.445       3.335       2.224       1.114      3.3313E-03
1
              HEAD IN LAYER   3 AT END OF TIME STEP  78 IN STRESS PERIOD    2
  ---------------------------------------------------------------------------

            1           2           3           4           5           6           7           8           9          10
 ........................................................................................................................
   1    9.997       8.887       7.776       6.666       5.555       4.445       3.335       2.224       1.114      3.3313E-03
   2    9.997       8.887       7.776       6.666       5.555       4.445       3.335       2.224       1.114      3.3313E-03
   3    9.997       8.887       7.776       6.666       5.555       4.445       3.335       2.224       1.114      3.3313E-03
   4    9.997       8.887       7.776       6.666       5.555       4.445       3.335       2.224       1.114      3.3313E-03
   5    9.997       8.887       7.776       6.666       5.555       4.445       3.335       2.224       1.114      3.3313E-03
   6    9.997       8.887       7.776       6.666       5.555       4.445       3.335       2.224       1.114      3.3313E-03
   7    9.997       8.887       7.776       6.666       5.555       4.445       3.335       2.224       1.114      3.3313E-03
   8    9.997       8.887       7.776       6.666       5.555       4.445       3.335       2.224       1.114      3.3313E-03
   9    9.997       8.887       7.776       6.666       5.555       4.445       3.335       2.224       1.114      3.3313E-03
  10    9.997       8.887       7.776       6.666       5.555       4.445       3.335       2.224       1.114      3.3313E-03
1
              HEAD IN LAYER   4 AT END OF TIME STEP  78 IN STRESS PERIOD    2
  ---------------------------------------------------------------------------

            1           2           3           4           5           6           7           8           9          10
 ........................................................................................................................
   1    9.997       8.887       7.776       6.666       5.555       4.445       3.335       2.224       1.114      3.3313E-03
   2    9.997       8.887       7.776       6.666       5.555       4.445       3.335       2.224       1.114      3.3313E-03
   3    9.997       8.887       7.776       6.666       5.555       4.445       3.335       2.224       1.114      3.3313E-03
   4    9.997       8.887       7.776       6.666       5.555       4.445       3.335       2.224       1.114      3.3313E-03
   5    9.997       8.887       7.776       6.666       5.555       4.445       3.335       2.224       1.114      3.3313E-03
   6    9.997       8.887       7.776       6.666       5.555       4.445       3.335       2.224       1.114      3.3313E-03
   7    9.997       8.887       7.776       6.666       5.555       4.445       3.335       2.224       1.114      3.3313E-03
   8    9.997       8.887       7.776       6.666       5.555       4.445       3.335       2.224       1.114      3.3313E-03
   9    9.997       8.887       7.776       6.666       5.555       4.445       3.335       2.224       1.114      3.3313E-03
  10    9.997       8.887       7.776       6.666       5.555       4.445       3.335       2.224       1.114      3.3313E-03

 HEAD WILL BE SAVED ON UNIT   51 AT END OF TIME STEP   78, STRESS PERIOD    2

 DRAWDOWN WILL BE SAVED ON UNIT   52 AT END OF TIME STEP   78, STRESS PERIOD    2
1
  VOLUMETRIC BUDGET FOR ENTIRE MODEL AT END OF TIME STEP   78, STRESS PERIOD   2
  ------------------------------------------------------------------------------

     CUMULATIVE VOLUMES      L**3       RATES FOR THIS TIME STEP      L**3/T
     ------------------                 ------------------------

           IN:                                      IN:
           ---                                      ---
             STORAGE =       1.0477E-08               STORAGE =           0.0000
       CONSTANT HEAD =           0.0000         CONSTANT HEAD =           0.0000
               WELLS =           0.0000                 WELLS =           0.0000
     HEAD DEP BOUNDS =       52638.6328       HEAD DEP BOUNDS =         666.3123

            TOTAL IN =       52638.6328              TOTAL IN =         666.3123

          OUT:                                     OUT:
          ----                                     ----
             STORAGE =       5.2387E-08               STORAGE =           0.0000
       CONSTANT HEAD =           0.0000         CONSTANT HEAD =           0.0000
               WELLS =           0.0000                 WELLS =           0.0000
     HEAD DEP BOUNDS =       52634.4609       HEAD DEP BOUNDS =         666.2595

           TOTAL OUT =       52634.4609             TOTAL OUT =         666.2595

            IN - OUT =           4.1719              IN - OUT =       5.2795E-02

 PERCENT DISCREPANCY =           0.01     PERCENT DISCREPANCY =           0.01






         TIME SUMMARY AT END OF TIME STEP   78 IN STRESS PERIOD    2
                    SECONDS     MINUTES      HOURS       DAYS        YEARS
                    -----------------------------------------------------------
   TIME STEP LENGTH  86400.      1440.0      24.000      1.0000     2.73785E-03
 STRESS PERIOD TIME 6.73920E+06 1.12320E+05  1872.0      78.000     0.21355    
         TOTAL TIME 6.82560E+06 1.13760E+05  1896.0      79.000     0.21629    
1
 
 SOLVING FOR HEAD 

 OUTPUT CONTROL FOR STRESS PERIOD    2   TIME STEP   79
    SAVE HEAD FOR ALL LAYERS
    SAVE DRAWDOWN FOR ALL LAYERS
    SAVE BUDGET
    PRINT HEAD FOR ALL LAYERS
    PRINT BUDGET
 UBDSV1 SAVING "         STORAGE" ON UNIT  53 AT TIME STEP 79, STRESS PERIOD   2
 UBDSV2 SAVING "   CONSTANT HEAD" ON UNIT  53 AT TIME STEP 79, STRESS PERIOD   2
 UBDSV1 SAVING "FLOW RIGHT FACE " ON UNIT  53 AT TIME STEP 79, STRESS PERIOD   2
 UBDSV1 SAVING "FLOW FRONT FACE " ON UNIT  53 AT TIME STEP 79, STRESS PERIOD   2
 UBDSV1 SAVING "FLOW LOWER FACE " ON UNIT  53 AT TIME STEP 79, STRESS PERIOD   2
1
              HEAD IN LAYER   1 AT END OF TIME STEP  79 IN STRESS PERIOD    2
  ---------------------------------------------------------------------------

            1           2           3           4           5           6           7           8           9          10
 ........................................................................................................................
   1    9.997       8.887       7.776       6.666       5.555       4.445       3.335       2.224       1.114      3.3313E-03
   2    9.997       8.887       7.776       6.666       5.555       4.445       3.335       2.224       1.114      3.3313E-03
   3    9.997       8.887       7.776       6.666       5.555       4.445       3.335       2.224       1.114      3.3313E-03
   4    9.997       8.887       7.776       6.666       5.555       4.445       3.335       2.224       1.114      3.3313E-03
   5    9.997       8.887       7.776       6.666       5.555       4.445       3.335       2.224       1.114      3.3313E-03
   6    9.997       8.887       7.776       6.666       5.555       4.445       3.335       2.224       1.114      3.3313E-03
   7    9.997       8.887       7.776       6.666       5.555       4.445       3.335       2.224       1.114      3.3313E-03
   8    9.997       8.887       7.776       6.666       5.555       4.445       3.335       2.224       1.114      3.3313E-03
   9    9.997       8.887       7.776       6.666       5.555       4.445       3.335       2.224       1.114      3.3313E-03
  10    9.997       8.887       7.776       6.666       5.555       4.445       3.335       2.224       1.114      3.3313E-03
1
              HEAD IN LAYER   2 AT END OF TIME STEP  79 IN STRESS PERIOD    2
  ---------------------------------------------------------------------------

            1           2           3           4           5           6           7           8           9          10
 ........................................................................................................................
   1    9.997       8.887       7.776       6.666       5.555       4.445       3.335       2.224       1.114      3.3313E-03
   2    9.997       8.887       7.776       6.666       5.555       4.445       3.335       2.224       1.114      3.3313E-03
   3    9.997       8.887       7.776       6.666       5.555       4.445       3.335       2.224       1.114      3.3313E-03
   4    9.997       8.887       7.776       6.666       5.555       4.445       3.335       2.224       1.114      3.3313E-03
   5    9.997       8.887       7.776       6.666       5.555       4.445       3.335       2.224       1.114      3.3313E-03
   6    9.997       8.887       7.776       6.666       5.555       4.445       3.335       2.224       1.114      3.3313E-03
   7    9.997       8.887       7.776       6.666       5.555       4.445       3.335       2.224       1.114      3.3313E-03
   8    9.997       8.887       7.776       6.666       5.555       4.445       3.335       2.224       1.114      3.3313E-03
   9    9.997       8.887       7.776       6.666       5.555       4.445       3.335       2.224       1.114      3.3313E-03
  10    9.997       8.887       7.776       6.666       5.555       4.445       3.335       2.224       1.114      3.3313E-03
1
              HEAD IN LAYER   3 AT END OF TIME STEP  79 IN STRESS PERIOD    2
  ---------------------------------------------------------------------------

            1           2           3           4           5           6           7           8           9          10
 ........................................................................................................................
   1    9.997       8.887       7.776       6.666       5.555       4.445       3.335       2.224       1.114      3.3313E-03
   2    9.997       8.887       7.776       6.666       5.555       4.445       3.335       2.224       1.114      3.3313E-03
   3    9.997       8.887       7.776       6.666       5.555       4.445       3.335       2.224       1.114      3.3313E-03
   4    9.997       8.887       7.776       6.666       5.555       4.445       3.335       2.224       1.114      3.3313E-03
   5    9.997       8.887       7.776       6.666       5.555       4.445       3.335       2.224       1.114      3.3313E-03
   6    9.997       8.887       7.776       6.666       5.555       4.445       3.335       2.224       1.114      3.3313E-03
   7    9.997       8.887       7.776       6.666       5.555       4.445       3.335       2.224       1.114      3.3313E-03
   8    9.997       8.887       7.776       6.666       5.555       4.445       3.335       2.224       1.114      3.3313E-03
   9    9.997       8.887       7.776       6.666       5.555       4.445       3.335       2.224       1.114      3.3313E-03
  10    9.997       8.887       7.776       6.666       5.555       4.445       3.335       2.224       1.114      3.3313E-03
1
              HEAD IN LAYER   4 AT END OF TIME STEP  79 IN STRESS PERIOD    2
  ---------------------------------------------------------------------------

            1           2           3           4           5           6           7           8           9          10
 ........................................................................................................................
   1    9.997       8.887       7.776       6.666       5.555       4.445       3.335       2.224       1.114      3.3313E-03
   2    9.997       8.887       7.776       6.666       5.555       4.445       3.335       2.224       1.114      3.3313E-03
   3    9.997       8.887       7.776       6.666       5.555       4.445       3.335       2.224       1.114      3.3313E-03
   4    9.997       8.887       7.776       6.666       5.555       4.445       3.335       2.224       1.114      3.3313E-03
   5    9.997       8.887       7.776       6.666       5.555       4.445       3.335       2.224       1.114      3.3313E-03
   6    9.997       8.887       7.776       6.666       5.555       4.445       3.335       2.224       1.114      3.3313E-03
   7    9.997       8.887       7.776       6.666       5.555       4.445       3.335       2.224       1.114      3.3313E-03
   8    9.997       8.887       7.776       6.666       5.555       4.445       3.335       2.224       1.114      3.3313E-03
   9    9.997       8.887       7.776       6.666       5.555       4.445       3.335       2.224       1.114      3.3313E-03
  10    9.997       8.887       7.776       6.666       5.555       4.445       3.335       2.224       1.114      3.3313E-03

 HEAD WILL BE SAVED ON UNIT   51 AT END OF TIME STEP   79, STRESS PERIOD    2

 DRAWDOWN WILL BE SAVED ON UNIT   52 AT END OF TIME STEP   79, STRESS PERIOD    2
1
  VOLUMETRIC BUDGET FOR ENTIRE MODEL AT END OF TIME STEP   79, STRESS PERIOD   2
  ------------------------------------------------------------------------------

     CUMULATIVE VOLUMES      L**3       RATES FOR THIS TIME STEP      L**3/T
     ------------------                 ------------------------

           IN:                                      IN:
           ---                                      ---
             STORAGE =       1.0477E-08               STORAGE =           0.0000
       CONSTANT HEAD =           0.0000         CONSTANT HEAD =           0.0000
               WELLS =           0.0000                 WELLS =           0.0000
     HEAD DEP BOUNDS =       53304.9453       HEAD DEP BOUNDS =         666.3123

            TOTAL IN =       53304.9453              TOTAL IN =         666.3123

          OUT:                                     OUT:
          ----                                     ----
             STORAGE =       5.2387E-08               STORAGE =           0.0000
       CONSTANT HEAD =           0.0000         CONSTANT HEAD =           0.0000
               WELLS =           0.0000                 WELLS =           0.0000
     HEAD DEP BOUNDS =       53300.7188       HEAD DEP BOUNDS =         666.2595

           TOTAL OUT =       53300.7188             TOTAL OUT =         666.2595

            IN - OUT =           4.2266              IN - OUT =       5.2795E-02

 PERCENT DISCREPANCY =           0.01     PERCENT DISCREPANCY =           0.01






         TIME SUMMARY AT END OF TIME STEP   79 IN STRESS PERIOD    2
                    SECONDS     MINUTES      HOURS       DAYS        YEARS
                    -----------------------------------------------------------
   TIME STEP LENGTH  86400.      1440.0      24.000      1.0000     2.73785E-03
 STRESS PERIOD TIME 6.82560E+06 1.13760E+05  1896.0      79.000     0.21629    
         TOTAL TIME 6.91200E+06 1.15200E+05  1920.0      80.000     0.21903    
1
 
 SOLVING FOR HEAD 

 OUTPUT CONTROL FOR STRESS PERIOD    2   TIME STEP   80
    SAVE HEAD FOR ALL LAYERS
    SAVE DRAWDOWN FOR ALL LAYERS
    SAVE BUDGET
    PRINT HEAD FOR ALL LAYERS
    PRINT BUDGET
 UBDSV1 SAVING "         STORAGE" ON UNIT  53 AT TIME STEP 80, STRESS PERIOD   2
 UBDSV2 SAVING "   CONSTANT HEAD" ON UNIT  53 AT TIME STEP 80, STRESS PERIOD   2
 UBDSV1 SAVING "FLOW RIGHT FACE " ON UNIT  53 AT TIME STEP 80, STRESS PERIOD   2
 UBDSV1 SAVING "FLOW FRONT FACE " ON UNIT  53 AT TIME STEP 80, STRESS PERIOD   2
 UBDSV1 SAVING "FLOW LOWER FACE " ON UNIT  53 AT TIME STEP 80, STRESS PERIOD   2
1
              HEAD IN LAYER   1 AT END OF TIME STEP  80 IN STRESS PERIOD    2
  ---------------------------------------------------------------------------

            1           2           3           4           5           6           7           8           9          10
 ........................................................................................................................
   1    9.997       8.887       7.776       6.666       5.555       4.445       3.335       2.224       1.114      3.3313E-03
   2    9.997       8.887       7.776       6.666       5.555       4.445       3.335       2.224       1.114      3.3313E-03
   3    9.997       8.887       7.776       6.666       5.555       4.445       3.335       2.224       1.114      3.3313E-03
   4    9.997       8.887       7.776       6.666       5.555       4.445       3.335       2.224       1.114      3.3313E-03
   5    9.997       8.887       7.776       6.666       5.555       4.445       3.335       2.224       1.114      3.3313E-03
   6    9.997       8.887       7.776       6.666       5.555       4.445       3.335       2.224       1.114      3.3313E-03
   7    9.997       8.887       7.776       6.666       5.555       4.445       3.335       2.224       1.114      3.3313E-03
   8    9.997       8.887       7.776       6.666       5.555       4.445       3.335       2.224       1.114      3.3313E-03
   9    9.997       8.887       7.776       6.666       5.555       4.445       3.335       2.224       1.114      3.3313E-03
  10    9.997       8.887       7.776       6.666       5.555       4.445       3.335       2.224       1.114      3.3313E-03
1
              HEAD IN LAYER   2 AT END OF TIME STEP  80 IN STRESS PERIOD    2
  ---------------------------------------------------------------------------

            1           2           3           4           5           6           7           8           9          10
 ........................................................................................................................
   1    9.997       8.887       7.776       6.666       5.555       4.445       3.335       2.224       1.114      3.3313E-03
   2    9.997       8.887       7.776       6.666       5.555       4.445       3.335       2.224       1.114      3.3313E-03
   3    9.997       8.887       7.776       6.666       5.555       4.445       3.335       2.224       1.114      3.3313E-03
   4    9.997       8.887       7.776       6.666       5.555       4.445       3.335       2.224       1.114      3.3313E-03
   5    9.997       8.887       7.776       6.666       5.555       4.445       3.335       2.224       1.114      3.3313E-03
   6    9.997       8.887       7.776       6.666       5.555       4.445       3.335       2.224       1.114      3.3313E-03
   7    9.997       8.887       7.776       6.666       5.555       4.445       3.335       2.224       1.114      3.3313E-03
   8    9.997       8.887       7.776       6.666       5.555       4.445       3.335       2.224       1.114      3.3313E-03
   9    9.997       8.887       7.776       6.666       5.555       4.445       3.335       2.224       1.114      3.3313E-03
  10    9.997       8.887       7.776       6.666       5.555       4.445       3.335       2.224       1.114      3.3313E-03
1
              HEAD IN LAYER   3 AT END OF TIME STEP  80 IN STRESS PERIOD    2
  ---------------------------------------------------------------------------

            1           2           3           4           5           6           7           8           9          10
 ........................................................................................................................
   1    9.997       8.887       7.776       6.666       5.555       4.445       3.335       2.224       1.114      3.3313E-03
   2    9.997       8.887       7.776       6.666       5.555       4.445       3.335       2.224       1.114      3.3313E-03
   3    9.997       8.887       7.776       6.666       5.555       4.445       3.335       2.224       1.114      3.3313E-03
   4    9.997       8.887       7.776       6.666       5.555       4.445       3.335       2.224       1.114      3.3313E-03
   5    9.997       8.887       7.776       6.666       5.555       4.445       3.335       2.224       1.114      3.3313E-03
   6    9.997       8.887       7.776       6.666       5.555       4.445       3.335       2.224       1.114      3.3313E-03
   7    9.997       8.887       7.776       6.666       5.555       4.445       3.335       2.224       1.114      3.3313E-03
   8    9.997       8.887       7.776       6.666       5.555       4.445       3.335       2.224       1.114      3.3313E-03
   9    9.997       8.887       7.776       6.666       5.555       4.445       3.335       2.224       1.114      3.3313E-03
  10    9.997       8.887       7.776       6.666       5.555       4.445       3.335       2.224       1.114      3.3313E-03
1
              HEAD IN LAYER   4 AT END OF TIME STEP  80 IN STRESS PERIOD    2
  ---------------------------------------------------------------------------

            1           2           3           4           5           6           7           8           9          10
 ........................................................................................................................
   1    9.997       8.887       7.776       6.666       5.555       4.445       3.335       2.224       1.114      3.3313E-03
   2    9.997       8.887       7.776       6.666       5.555       4.445       3.335       2.224       1.114      3.3313E-03
   3    9.997       8.887       7.776       6.666       5.555       4.445       3.335       2.224       1.114      3.3313E-03
   4    9.997       8.887       7.776       6.666       5.555       4.445       3.335       2.224       1.114      3.3313E-03
   5    9.997       8.887       7.776       6.666       5.555       4.445       3.335       2.224       1.114      3.3313E-03
   6    9.997       8.887       7.776       6.666       5.555       4.445       3.335       2.224       1.114      3.3313E-03
   7    9.997       8.887       7.776       6.666       5.555       4.445       3.335       2.224       1.114      3.3313E-03
   8    9.997       8.887       7.776       6.666       5.555       4.445       3.335       2.224       1.114      3.3313E-03
   9    9.997       8.887       7.776       6.666       5.555       4.445       3.335       2.224       1.114      3.3313E-03
  10    9.997       8.887       7.776       6.666       5.555       4.445       3.335       2.224       1.114      3.3313E-03

 HEAD WILL BE SAVED ON UNIT   51 AT END OF TIME STEP   80, STRESS PERIOD    2

 DRAWDOWN WILL BE SAVED ON UNIT   52 AT END OF TIME STEP   80, STRESS PERIOD    2
1
  VOLUMETRIC BUDGET FOR ENTIRE MODEL AT END OF TIME STEP   80, STRESS PERIOD   2
  ------------------------------------------------------------------------------

     CUMULATIVE VOLUMES      L**3       RATES FOR THIS TIME STEP      L**3/T
     ------------------                 ------------------------

           IN:                                      IN:
           ---                                      ---
             STORAGE =       1.0477E-08               STORAGE =           0.0000
       CONSTANT HEAD =           0.0000         CONSTANT HEAD =           0.0000
               WELLS =           0.0000                 WELLS =           0.0000
     HEAD DEP BOUNDS =       53971.2578       HEAD DEP BOUNDS =         666.3123

            TOTAL IN =       53971.2578              TOTAL IN =         666.3123

          OUT:                                     OUT:
          ----                                     ----
             STORAGE =       5.2387E-08               STORAGE =           0.0000
       CONSTANT HEAD =           0.0000         CONSTANT HEAD =           0.0000
               WELLS =           0.0000                 WELLS =           0.0000
     HEAD DEP BOUNDS =       53966.9766       HEAD DEP BOUNDS =         666.2595

           TOTAL OUT =       53966.9766             TOTAL OUT =         666.2595

            IN - OUT =           4.2812              IN - OUT =       5.2795E-02

 PERCENT DISCREPANCY =           0.01     PERCENT DISCREPANCY =           0.01






         TIME SUMMARY AT END OF TIME STEP   80 IN STRESS PERIOD    2
                    SECONDS     MINUTES      HOURS       DAYS        YEARS
                    -----------------------------------------------------------
   TIME STEP LENGTH  86400.      1440.0      24.000      1.0000     2.73785E-03
 STRESS PERIOD TIME 6.91200E+06 1.15200E+05  1920.0      80.000     0.21903    
         TOTAL TIME 6.99840E+06 1.16640E+05  1944.0      81.000     0.22177    
1
 
 SOLVING FOR HEAD 

 OUTPUT CONTROL FOR STRESS PERIOD    2   TIME STEP   81
    SAVE HEAD FOR ALL LAYERS
    SAVE DRAWDOWN FOR ALL LAYERS
    SAVE BUDGET
    PRINT HEAD FOR ALL LAYERS
    PRINT BUDGET
 UBDSV1 SAVING "         STORAGE" ON UNIT  53 AT TIME STEP 81, STRESS PERIOD   2
 UBDSV2 SAVING "   CONSTANT HEAD" ON UNIT  53 AT TIME STEP 81, STRESS PERIOD   2
 UBDSV1 SAVING "FLOW RIGHT FACE " ON UNIT  53 AT TIME STEP 81, STRESS PERIOD   2
 UBDSV1 SAVING "FLOW FRONT FACE " ON UNIT  53 AT TIME STEP 81, STRESS PERIOD   2
 UBDSV1 SAVING "FLOW LOWER FACE " ON UNIT  53 AT TIME STEP 81, STRESS PERIOD   2
1
              HEAD IN LAYER   1 AT END OF TIME STEP  81 IN STRESS PERIOD    2
  ---------------------------------------------------------------------------

            1           2           3           4           5           6           7           8           9          10
 ........................................................................................................................
   1    9.997       8.887       7.776       6.666       5.555       4.445       3.335       2.224       1.114      3.3313E-03
   2    9.997       8.887       7.776       6.666       5.555       4.445       3.335       2.224       1.114      3.3313E-03
   3    9.997       8.887       7.776       6.666       5.555       4.445       3.335       2.224       1.114      3.3313E-03
   4    9.997       8.887       7.776       6.666       5.555       4.445       3.335       2.224       1.114      3.3313E-03
   5    9.997       8.887       7.776       6.666       5.555       4.445       3.335       2.224       1.114      3.3313E-03
   6    9.997       8.887       7.776       6.666       5.555       4.445       3.335       2.224       1.114      3.3313E-03
   7    9.997       8.887       7.776       6.666       5.555       4.445       3.335       2.224       1.114      3.3313E-03
   8    9.997       8.887       7.776       6.666       5.555       4.445       3.335       2.224       1.114      3.3313E-03
   9    9.997       8.887       7.776       6.666       5.555       4.445       3.335       2.224       1.114      3.3313E-03
  10    9.997       8.887       7.776       6.666       5.555       4.445       3.335       2.224       1.114      3.3313E-03
1
              HEAD IN LAYER   2 AT END OF TIME STEP  81 IN STRESS PERIOD    2
  ---------------------------------------------------------------------------

            1           2           3           4           5           6           7           8           9          10
 ........................................................................................................................
   1    9.997       8.887       7.776       6.666       5.555       4.445       3.335       2.224       1.114      3.3313E-03
   2    9.997       8.887       7.776       6.666       5.555       4.445       3.335       2.224       1.114      3.3313E-03
   3    9.997       8.887       7.776       6.666       5.555       4.445       3.335       2.224       1.114      3.3313E-03
   4    9.997       8.887       7.776       6.666       5.555       4.445       3.335       2.224       1.114      3.3313E-03
   5    9.997       8.887       7.776       6.666       5.555       4.445       3.335       2.224       1.114      3.3313E-03
   6    9.997       8.887       7.776       6.666       5.555       4.445       3.335       2.224       1.114      3.3313E-03
   7    9.997       8.887       7.776       6.666       5.555       4.445       3.335       2.224       1.114      3.3313E-03
   8    9.997       8.887       7.776       6.666       5.555       4.445       3.335       2.224       1.114      3.3313E-03
   9    9.997       8.887       7.776       6.666       5.555       4.445       3.335       2.224       1.114      3.3313E-03
  10    9.997       8.887       7.776       6.666       5.555       4.445       3.335       2.224       1.114      3.3313E-03
1
              HEAD IN LAYER   3 AT END OF TIME STEP  81 IN STRESS PERIOD    2
  ---------------------------------------------------------------------------

            1           2           3           4           5           6           7           8           9          10
 ........................................................................................................................
   1    9.997       8.887       7.776       6.666       5.555       4.445       3.335       2.224       1.114      3.3313E-03
   2    9.997       8.887       7.776       6.666       5.555       4.445       3.335       2.224       1.114      3.3313E-03
   3    9.997       8.887       7.776       6.666       5.555       4.445       3.335       2.224       1.114      3.3313E-03
   4    9.997       8.887       7.776       6.666       5.555       4.445       3.335       2.224       1.114      3.3313E-03
   5    9.997       8.887       7.776       6.666       5.555       4.445       3.335       2.224       1.114      3.3313E-03
   6    9.997       8.887       7.776       6.666       5.555       4.445       3.335       2.224       1.114      3.3313E-03
   7    9.997       8.887       7.776       6.666       5.555       4.445       3.335       2.224       1.114      3.3313E-03
   8    9.997       8.887       7.776       6.666       5.555       4.445       3.335       2.224       1.114      3.3313E-03
   9    9.997       8.887       7.776       6.666       5.555       4.445       3.335       2.224       1.114      3.3313E-03
  10    9.997       8.887       7.776       6.666       5.555       4.445       3.335       2.224       1.114      3.3313E-03
1
              HEAD IN LAYER   4 AT END OF TIME STEP  81 IN STRESS PERIOD    2
  ---------------------------------------------------------------------------

            1           2           3           4           5           6           7           8           9          10
 ........................................................................................................................
   1    9.997       8.887       7.776       6.666       5.555       4.445       3.335       2.224       1.114      3.3313E-03
   2    9.997       8.887       7.776       6.666       5.555       4.445       3.335       2.224       1.114      3.3313E-03
   3    9.997       8.887       7.776       6.666       5.555       4.445       3.335       2.224       1.114      3.3313E-03
   4    9.997       8.887       7.776       6.666       5.555       4.445       3.335       2.224       1.114      3.3313E-03
   5    9.997       8.887       7.776       6.666       5.555       4.445       3.335       2.224       1.114      3.3313E-03
   6    9.997       8.887       7.776       6.666       5.555       4.445       3.335       2.224       1.114      3.3313E-03
   7    9.997       8.887       7.776       6.666       5.555       4.445       3.335       2.224       1.114      3.3313E-03
   8    9.997       8.887       7.776       6.666       5.555       4.445       3.335       2.224       1.114      3.3313E-03
   9    9.997       8.887       7.776       6.666       5.555       4.445       3.335       2.224       1.114      3.3313E-03
  10    9.997       8.887       7.776       6.666       5.555       4.445       3.335       2.224       1.114      3.3313E-03

 HEAD WILL BE SAVED ON UNIT   51 AT END OF TIME STEP   81, STRESS PERIOD    2

 DRAWDOWN WILL BE SAVED ON UNIT   52 AT END OF TIME STEP   81, STRESS PERIOD    2
1
  VOLUMETRIC BUDGET FOR ENTIRE MODEL AT END OF TIME STEP   81, STRESS PERIOD   2
  ------------------------------------------------------------------------------

     CUMULATIVE VOLUMES      L**3       RATES FOR THIS TIME STEP      L**3/T
     ------------------                 ------------------------

           IN:                                      IN:
           ---                                      ---
             STORAGE =       1.0477E-08               STORAGE =           0.0000
       CONSTANT HEAD =           0.0000         CONSTANT HEAD =           0.0000
               WELLS =           0.0000                 WELLS =           0.0000
     HEAD DEP BOUNDS =       54637.5703       HEAD DEP BOUNDS =         666.3123

            TOTAL IN =       54637.5703              TOTAL IN =         666.3123

          OUT:                                     OUT:
          ----                                     ----
             STORAGE =       5.2387E-08               STORAGE =           0.0000
       CONSTANT HEAD =           0.0000         CONSTANT HEAD =           0.0000
               WELLS =           0.0000                 WELLS =           0.0000
     HEAD DEP BOUNDS =       54633.2344       HEAD DEP BOUNDS =         666.2595

           TOTAL OUT =       54633.2344             TOTAL OUT =         666.2595

            IN - OUT =           4.3359              IN - OUT =       5.2795E-02

 PERCENT DISCREPANCY =           0.01     PERCENT DISCREPANCY =           0.01






         TIME SUMMARY AT END OF TIME STEP   81 IN STRESS PERIOD    2
                    SECONDS     MINUTES      HOURS       DAYS        YEARS
                    -----------------------------------------------------------
   TIME STEP LENGTH  86400.      1440.0      24.000      1.0000     2.73785E-03
 STRESS PERIOD TIME 6.99840E+06 1.16640E+05  1944.0      81.000     0.22177    
         TOTAL TIME 7.08480E+06 1.18080E+05  1968.0      82.000     0.22450    
1
 
 SOLVING FOR HEAD 

 OUTPUT CONTROL FOR STRESS PERIOD    2   TIME STEP   82
    SAVE HEAD FOR ALL LAYERS
    SAVE DRAWDOWN FOR ALL LAYERS
    SAVE BUDGET
    PRINT HEAD FOR ALL LAYERS
    PRINT BUDGET
 UBDSV1 SAVING "         STORAGE" ON UNIT  53 AT TIME STEP 82, STRESS PERIOD   2
 UBDSV2 SAVING "   CONSTANT HEAD" ON UNIT  53 AT TIME STEP 82, STRESS PERIOD   2
 UBDSV1 SAVING "FLOW RIGHT FACE " ON UNIT  53 AT TIME STEP 82, STRESS PERIOD   2
 UBDSV1 SAVING "FLOW FRONT FACE " ON UNIT  53 AT TIME STEP 82, STRESS PERIOD   2
 UBDSV1 SAVING "FLOW LOWER FACE " ON UNIT  53 AT TIME STEP 82, STRESS PERIOD   2
1
              HEAD IN LAYER   1 AT END OF TIME STEP  82 IN STRESS PERIOD    2
  ---------------------------------------------------------------------------

            1           2           3           4           5           6           7           8           9          10
 ........................................................................................................................
   1    9.997       8.887       7.776       6.666       5.555       4.445       3.335       2.224       1.114      3.3313E-03
   2    9.997       8.887       7.776       6.666       5.555       4.445       3.335       2.224       1.114      3.3313E-03
   3    9.997       8.887       7.776       6.666       5.555       4.445       3.335       2.224       1.114      3.3313E-03
   4    9.997       8.887       7.776       6.666       5.555       4.445       3.335       2.224       1.114      3.3313E-03
   5    9.997       8.887       7.776       6.666       5.555       4.445       3.335       2.224       1.114      3.3313E-03
   6    9.997       8.887       7.776       6.666       5.555       4.445       3.335       2.224       1.114      3.3313E-03
   7    9.997       8.887       7.776       6.666       5.555       4.445       3.335       2.224       1.114      3.3313E-03
   8    9.997       8.887       7.776       6.666       5.555       4.445       3.335       2.224       1.114      3.3313E-03
   9    9.997       8.887       7.776       6.666       5.555       4.445       3.335       2.224       1.114      3.3313E-03
  10    9.997       8.887       7.776       6.666       5.555       4.445       3.335       2.224       1.114      3.3313E-03
1
              HEAD IN LAYER   2 AT END OF TIME STEP  82 IN STRESS PERIOD    2
  ---------------------------------------------------------------------------

            1           2           3           4           5           6           7           8           9          10
 ........................................................................................................................
   1    9.997       8.887       7.776       6.666       5.555       4.445       3.335       2.224       1.114      3.3313E-03
   2    9.997       8.887       7.776       6.666       5.555       4.445       3.335       2.224       1.114      3.3313E-03
   3    9.997       8.887       7.776       6.666       5.555       4.445       3.335       2.224       1.114      3.3313E-03
   4    9.997       8.887       7.776       6.666       5.555       4.445       3.335       2.224       1.114      3.3313E-03
   5    9.997       8.887       7.776       6.666       5.555       4.445       3.335       2.224       1.114      3.3313E-03
   6    9.997       8.887       7.776       6.666       5.555       4.445       3.335       2.224       1.114      3.3313E-03
   7    9.997       8.887       7.776       6.666       5.555       4.445       3.335       2.224       1.114      3.3313E-03
   8    9.997       8.887       7.776       6.666       5.555       4.445       3.335       2.224       1.114      3.3313E-03
   9    9.997       8.887       7.776       6.666       5.555       4.445       3.335       2.224       1.114      3.3313E-03
  10    9.997       8.887       7.776       6.666       5.555       4.445       3.335       2.224       1.114      3.3313E-03
1
              HEAD IN LAYER   3 AT END OF TIME STEP  82 IN STRESS PERIOD    2
  ---------------------------------------------------------------------------

            1           2           3           4           5           6           7           8           9          10
 ........................................................................................................................
   1    9.997       8.887       7.776       6.666       5.555       4.445       3.335       2.224       1.114      3.3313E-03
   2    9.997       8.887       7.776       6.666       5.555       4.445       3.335       2.224       1.114      3.3313E-03
   3    9.997       8.887       7.776       6.666       5.555       4.445       3.335       2.224       1.114      3.3313E-03
   4    9.997       8.887       7.776       6.666       5.555       4.445       3.335       2.224       1.114      3.3313E-03
   5    9.997       8.887       7.776       6.666       5.555       4.445       3.335       2.224       1.114      3.3313E-03
   6    9.997       8.887       7.776       6.666       5.555       4.445       3.335       2.224       1.114      3.3313E-03
   7    9.997       8.887       7.776       6.666       5.555       4.445       3.335       2.224       1.114      3.3313E-03
   8    9.997       8.887       7.776       6.666       5.555       4.445       3.335       2.224       1.114      3.3313E-03
   9    9.997       8.887       7.776       6.666       5.555       4.445       3.335       2.224       1.114      3.3313E-03
  10    9.997       8.887       7.776       6.666       5.555       4.445       3.335       2.224       1.114      3.3313E-03
1
              HEAD IN LAYER   4 AT END OF TIME STEP  82 IN STRESS PERIOD    2
  ---------------------------------------------------------------------------

            1           2           3           4           5           6           7           8           9          10
 ........................................................................................................................
   1    9.997       8.887       7.776       6.666       5.555       4.445       3.335       2.224       1.114      3.3313E-03
   2    9.997       8.887       7.776       6.666       5.555       4.445       3.335       2.224       1.114      3.3313E-03
   3    9.997       8.887       7.776       6.666       5.555       4.445       3.335       2.224       1.114      3.3313E-03
   4    9.997       8.887       7.776       6.666       5.555       4.445       3.335       2.224       1.114      3.3313E-03
   5    9.997       8.887       7.776       6.666       5.555       4.445       3.335       2.224       1.114      3.3313E-03
   6    9.997       8.887       7.776       6.666       5.555       4.445       3.335       2.224       1.114      3.3313E-03
   7    9.997       8.887       7.776       6.666       5.555       4.445       3.335       2.224       1.114      3.3313E-03
   8    9.997       8.887       7.776       6.666       5.555       4.445       3.335       2.224       1.114      3.3313E-03
   9    9.997       8.887       7.776       6.666       5.555       4.445       3.335       2.224       1.114      3.3313E-03
  10    9.997       8.887       7.776       6.666       5.555       4.445       3.335       2.224       1.114      3.3313E-03

 HEAD WILL BE SAVED ON UNIT   51 AT END OF TIME STEP   82, STRESS PERIOD    2

 DRAWDOWN WILL BE SAVED ON UNIT   52 AT END OF TIME STEP   82, STRESS PERIOD    2
1
  VOLUMETRIC BUDGET FOR ENTIRE MODEL AT END OF TIME STEP   82, STRESS PERIOD   2
  ------------------------------------------------------------------------------

     CUMULATIVE VOLUMES      L**3       RATES FOR THIS TIME STEP      L**3/T
     ------------------                 ------------------------

           IN:                                      IN:
           ---                                      ---
             STORAGE =       1.0477E-08               STORAGE =           0.0000
       CONSTANT HEAD =           0.0000         CONSTANT HEAD =           0.0000
               WELLS =           0.0000                 WELLS =           0.0000
     HEAD DEP BOUNDS =       55303.8828       HEAD DEP BOUNDS =         666.3123

            TOTAL IN =       55303.8828              TOTAL IN =         666.3123

          OUT:                                     OUT:
          ----                                     ----
             STORAGE =       5.2387E-08               STORAGE =           0.0000
       CONSTANT HEAD =           0.0000         CONSTANT HEAD =           0.0000
               WELLS =           0.0000                 WELLS =           0.0000
     HEAD DEP BOUNDS =       55299.4922       HEAD DEP BOUNDS =         666.2595

           TOTAL OUT =       55299.4922             TOTAL OUT =         666.2595

            IN - OUT =           4.3906              IN - OUT =       5.2795E-02

 PERCENT DISCREPANCY =           0.01     PERCENT DISCREPANCY =           0.01






         TIME SUMMARY AT END OF TIME STEP   82 IN STRESS PERIOD    2
                    SECONDS     MINUTES      HOURS       DAYS        YEARS
                    -----------------------------------------------------------
   TIME STEP LENGTH  86400.      1440.0      24.000      1.0000     2.73785E-03
 STRESS PERIOD TIME 7.08480E+06 1.18080E+05  1968.0      82.000     0.22450    
         TOTAL TIME 7.17120E+06 1.19520E+05  1992.0      83.000     0.22724    
1
 
 SOLVING FOR HEAD 

 OUTPUT CONTROL FOR STRESS PERIOD    2   TIME STEP   83
    SAVE HEAD FOR ALL LAYERS
    SAVE DRAWDOWN FOR ALL LAYERS
    SAVE BUDGET
    PRINT HEAD FOR ALL LAYERS
    PRINT BUDGET
 UBDSV1 SAVING "         STORAGE" ON UNIT  53 AT TIME STEP 83, STRESS PERIOD   2
 UBDSV2 SAVING "   CONSTANT HEAD" ON UNIT  53 AT TIME STEP 83, STRESS PERIOD   2
 UBDSV1 SAVING "FLOW RIGHT FACE " ON UNIT  53 AT TIME STEP 83, STRESS PERIOD   2
 UBDSV1 SAVING "FLOW FRONT FACE " ON UNIT  53 AT TIME STEP 83, STRESS PERIOD   2
 UBDSV1 SAVING "FLOW LOWER FACE " ON UNIT  53 AT TIME STEP 83, STRESS PERIOD   2
1
              HEAD IN LAYER   1 AT END OF TIME STEP  83 IN STRESS PERIOD    2
  ---------------------------------------------------------------------------

            1           2           3           4           5           6           7           8           9          10
 ........................................................................................................................
   1    9.997       8.887       7.776       6.666       5.555       4.445       3.335       2.224       1.114      3.3313E-03
   2    9.997       8.887       7.776       6.666       5.555       4.445       3.335       2.224       1.114      3.3313E-03
   3    9.997       8.887       7.776       6.666       5.555       4.445       3.335       2.224       1.114      3.3313E-03
   4    9.997       8.887       7.776       6.666       5.555       4.445       3.335       2.224       1.114      3.3313E-03
   5    9.997       8.887       7.776       6.666       5.555       4.445       3.335       2.224       1.114      3.3313E-03
   6    9.997       8.887       7.776       6.666       5.555       4.445       3.335       2.224       1.114      3.3313E-03
   7    9.997       8.887       7.776       6.666       5.555       4.445       3.335       2.224       1.114      3.3313E-03
   8    9.997       8.887       7.776       6.666       5.555       4.445       3.335       2.224       1.114      3.3313E-03
   9    9.997       8.887       7.776       6.666       5.555       4.445       3.335       2.224       1.114      3.3313E-03
  10    9.997       8.887       7.776       6.666       5.555       4.445       3.335       2.224       1.114      3.3313E-03
1
              HEAD IN LAYER   2 AT END OF TIME STEP  83 IN STRESS PERIOD    2
  ---------------------------------------------------------------------------

            1           2           3           4           5           6           7           8           9          10
 ........................................................................................................................
   1    9.997       8.887       7.776       6.666       5.555       4.445       3.335       2.224       1.114      3.3313E-03
   2    9.997       8.887       7.776       6.666       5.555       4.445       3.335       2.224       1.114      3.3313E-03
   3    9.997       8.887       7.776       6.666       5.555       4.445       3.335       2.224       1.114      3.3313E-03
   4    9.997       8.887       7.776       6.666       5.555       4.445       3.335       2.224       1.114      3.3313E-03
   5    9.997       8.887       7.776       6.666       5.555       4.445       3.335       2.224       1.114      3.3313E-03
   6    9.997       8.887       7.776       6.666       5.555       4.445       3.335       2.224       1.114      3.3313E-03
   7    9.997       8.887       7.776       6.666       5.555       4.445       3.335       2.224       1.114      3.3313E-03
   8    9.997       8.887       7.776       6.666       5.555       4.445       3.335       2.224       1.114      3.3313E-03
   9    9.997       8.887       7.776       6.666       5.555       4.445       3.335       2.224       1.114      3.3313E-03
  10    9.997       8.887       7.776       6.666       5.555       4.445       3.335       2.224       1.114      3.3313E-03
1
              HEAD IN LAYER   3 AT END OF TIME STEP  83 IN STRESS PERIOD    2
  ---------------------------------------------------------------------------

            1           2           3           4           5           6           7           8           9          10
 ........................................................................................................................
   1    9.997       8.887       7.776       6.666       5.555       4.445       3.335       2.224       1.114      3.3313E-03
   2    9.997       8.887       7.776       6.666       5.555       4.445       3.335       2.224       1.114      3.3313E-03
   3    9.997       8.887       7.776       6.666       5.555       4.445       3.335       2.224       1.114      3.3313E-03
   4    9.997       8.887       7.776       6.666       5.555       4.445       3.335       2.224       1.114      3.3313E-03
   5    9.997       8.887       7.776       6.666       5.555       4.445       3.335       2.224       1.114      3.3313E-03
   6    9.997       8.887       7.776       6.666       5.555       4.445       3.335       2.224       1.114      3.3313E-03
   7    9.997       8.887       7.776       6.666       5.555       4.445       3.335       2.224       1.114      3.3313E-03
   8    9.997       8.887       7.776       6.666       5.555       4.445       3.335       2.224       1.114      3.3313E-03
   9    9.997       8.887       7.776       6.666       5.555       4.445       3.335       2.224       1.114      3.3313E-03
  10    9.997       8.887       7.776       6.666       5.555       4.445       3.335       2.224       1.114      3.3313E-03
1
              HEAD IN LAYER   4 AT END OF TIME STEP  83 IN STRESS PERIOD    2
  ---------------------------------------------------------------------------

            1           2           3           4           5           6           7           8           9          10
 ........................................................................................................................
   1    9.997       8.887       7.776       6.666       5.555       4.445       3.335       2.224       1.114      3.3313E-03
   2    9.997       8.887       7.776       6.666       5.555       4.445       3.335       2.224       1.114      3.3313E-03
   3    9.997       8.887       7.776       6.666       5.555       4.445       3.335       2.224       1.114      3.3313E-03
   4    9.997       8.887       7.776       6.666       5.555       4.445       3.335       2.224       1.114      3.3313E-03
   5    9.997       8.887       7.776       6.666       5.555       4.445       3.335       2.224       1.114      3.3313E-03
   6    9.997       8.887       7.776       6.666       5.555       4.445       3.335       2.224       1.114      3.3313E-03
   7    9.997       8.887       7.776       6.666       5.555       4.445       3.335       2.224       1.114      3.3313E-03
   8    9.997       8.887       7.776       6.666       5.555       4.445       3.335       2.224       1.114      3.3313E-03
   9    9.997       8.887       7.776       6.666       5.555       4.445       3.335       2.224       1.114      3.3313E-03
  10    9.997       8.887       7.776       6.666       5.555       4.445       3.335       2.224       1.114      3.3313E-03

 HEAD WILL BE SAVED ON UNIT   51 AT END OF TIME STEP   83, STRESS PERIOD    2

 DRAWDOWN WILL BE SAVED ON UNIT   52 AT END OF TIME STEP   83, STRESS PERIOD    2
1
  VOLUMETRIC BUDGET FOR ENTIRE MODEL AT END OF TIME STEP   83, STRESS PERIOD   2
  ------------------------------------------------------------------------------

     CUMULATIVE VOLUMES      L**3       RATES FOR THIS TIME STEP      L**3/T
     ------------------                 ------------------------

           IN:                                      IN:
           ---                                      ---
             STORAGE =       1.0477E-08               STORAGE =           0.0000
       CONSTANT HEAD =           0.0000         CONSTANT HEAD =           0.0000
               WELLS =           0.0000                 WELLS =           0.0000
     HEAD DEP BOUNDS =       55970.1953       HEAD DEP BOUNDS =         666.3123

            TOTAL IN =       55970.1953              TOTAL IN =         666.3123

          OUT:                                     OUT:
          ----                                     ----
             STORAGE =       5.2387E-08               STORAGE =           0.0000
       CONSTANT HEAD =           0.0000         CONSTANT HEAD =           0.0000
               WELLS =           0.0000                 WELLS =           0.0000
     HEAD DEP BOUNDS =       55965.7500       HEAD DEP BOUNDS =         666.2595

           TOTAL OUT =       55965.7500             TOTAL OUT =         666.2595

            IN - OUT =           4.4453              IN - OUT =       5.2795E-02

 PERCENT DISCREPANCY =           0.01     PERCENT DISCREPANCY =           0.01






         TIME SUMMARY AT END OF TIME STEP   83 IN STRESS PERIOD    2
                    SECONDS     MINUTES      HOURS       DAYS        YEARS
                    -----------------------------------------------------------
   TIME STEP LENGTH  86400.      1440.0      24.000      1.0000     2.73785E-03
 STRESS PERIOD TIME 7.17120E+06 1.19520E+05  1992.0      83.000     0.22724    
         TOTAL TIME 7.25760E+06 1.20960E+05  2016.0      84.000     0.22998    
1
 
 SOLVING FOR HEAD 

 OUTPUT CONTROL FOR STRESS PERIOD    2   TIME STEP   84
    SAVE HEAD FOR ALL LAYERS
    SAVE DRAWDOWN FOR ALL LAYERS
    SAVE BUDGET
    PRINT HEAD FOR ALL LAYERS
    PRINT BUDGET
 UBDSV1 SAVING "         STORAGE" ON UNIT  53 AT TIME STEP 84, STRESS PERIOD   2
 UBDSV2 SAVING "   CONSTANT HEAD" ON UNIT  53 AT TIME STEP 84, STRESS PERIOD   2
 UBDSV1 SAVING "FLOW RIGHT FACE " ON UNIT  53 AT TIME STEP 84, STRESS PERIOD   2
 UBDSV1 SAVING "FLOW FRONT FACE " ON UNIT  53 AT TIME STEP 84, STRESS PERIOD   2
 UBDSV1 SAVING "FLOW LOWER FACE " ON UNIT  53 AT TIME STEP 84, STRESS PERIOD   2
1
              HEAD IN LAYER   1 AT END OF TIME STEP  84 IN STRESS PERIOD    2
  ---------------------------------------------------------------------------

            1           2           3           4           5           6           7           8           9          10
 ........................................................................................................................
   1    9.997       8.887       7.776       6.666       5.555       4.445       3.335       2.224       1.114      3.3313E-03
   2    9.997       8.887       7.776       6.666       5.555       4.445       3.335       2.224       1.114      3.3313E-03
   3    9.997       8.887       7.776       6.666       5.555       4.445       3.335       2.224       1.114      3.3313E-03
   4    9.997       8.887       7.776       6.666       5.555       4.445       3.335       2.224       1.114      3.3313E-03
   5    9.997       8.887       7.776       6.666       5.555       4.445       3.335       2.224       1.114      3.3313E-03
   6    9.997       8.887       7.776       6.666       5.555       4.445       3.335       2.224       1.114      3.3313E-03
   7    9.997       8.887       7.776       6.666       5.555       4.445       3.335       2.224       1.114      3.3313E-03
   8    9.997       8.887       7.776       6.666       5.555       4.445       3.335       2.224       1.114      3.3313E-03
   9    9.997       8.887       7.776       6.666       5.555       4.445       3.335       2.224       1.114      3.3313E-03
  10    9.997       8.887       7.776       6.666       5.555       4.445       3.335       2.224       1.114      3.3313E-03
1
              HEAD IN LAYER   2 AT END OF TIME STEP  84 IN STRESS PERIOD    2
  ---------------------------------------------------------------------------

            1           2           3           4           5           6           7           8           9          10
 ........................................................................................................................
   1    9.997       8.887       7.776       6.666       5.555       4.445       3.335       2.224       1.114      3.3313E-03
   2    9.997       8.887       7.776       6.666       5.555       4.445       3.335       2.224       1.114      3.3313E-03
   3    9.997       8.887       7.776       6.666       5.555       4.445       3.335       2.224       1.114      3.3313E-03
   4    9.997       8.887       7.776       6.666       5.555       4.445       3.335       2.224       1.114      3.3313E-03
   5    9.997       8.887       7.776       6.666       5.555       4.445       3.335       2.224       1.114      3.3313E-03
   6    9.997       8.887       7.776       6.666       5.555       4.445       3.335       2.224       1.114      3.3313E-03
   7    9.997       8.887       7.776       6.666       5.555       4.445       3.335       2.224       1.114      3.3313E-03
   8    9.997       8.887       7.776       6.666       5.555       4.445       3.335       2.224       1.114      3.3313E-03
   9    9.997       8.887       7.776       6.666       5.555       4.445       3.335       2.224       1.114      3.3313E-03
  10    9.997       8.887       7.776       6.666       5.555       4.445       3.335       2.224       1.114      3.3313E-03
1
              HEAD IN LAYER   3 AT END OF TIME STEP  84 IN STRESS PERIOD    2
  ---------------------------------------------------------------------------

            1           2           3           4           5           6           7           8           9          10
 ........................................................................................................................
   1    9.997       8.887       7.776       6.666       5.555       4.445       3.335       2.224       1.114      3.3313E-03
   2    9.997       8.887       7.776       6.666       5.555       4.445       3.335       2.224       1.114      3.3313E-03
   3    9.997       8.887       7.776       6.666       5.555       4.445       3.335       2.224       1.114      3.3313E-03
   4    9.997       8.887       7.776       6.666       5.555       4.445       3.335       2.224       1.114      3.3313E-03
   5    9.997       8.887       7.776       6.666       5.555       4.445       3.335       2.224       1.114      3.3313E-03
   6    9.997       8.887       7.776       6.666       5.555       4.445       3.335       2.224       1.114      3.3313E-03
   7    9.997       8.887       7.776       6.666       5.555       4.445       3.335       2.224       1.114      3.3313E-03
   8    9.997       8.887       7.776       6.666       5.555       4.445       3.335       2.224       1.114      3.3313E-03
   9    9.997       8.887       7.776       6.666       5.555       4.445       3.335       2.224       1.114      3.3313E-03
  10    9.997       8.887       7.776       6.666       5.555       4.445       3.335       2.224       1.114      3.3313E-03
1
              HEAD IN LAYER   4 AT END OF TIME STEP  84 IN STRESS PERIOD    2
  ---------------------------------------------------------------------------

            1           2           3           4           5           6           7           8           9          10
 ........................................................................................................................
   1    9.997       8.887       7.776       6.666       5.555       4.445       3.335       2.224       1.114      3.3313E-03
   2    9.997       8.887       7.776       6.666       5.555       4.445       3.335       2.224       1.114      3.3313E-03
   3    9.997       8.887       7.776       6.666       5.555       4.445       3.335       2.224       1.114      3.3313E-03
   4    9.997       8.887       7.776       6.666       5.555       4.445       3.335       2.224       1.114      3.3313E-03
   5    9.997       8.887       7.776       6.666       5.555       4.445       3.335       2.224       1.114      3.3313E-03
   6    9.997       8.887       7.776       6.666       5.555       4.445       3.335       2.224       1.114      3.3313E-03
   7    9.997       8.887       7.776       6.666       5.555       4.445       3.335       2.224       1.114      3.3313E-03
   8    9.997       8.887       7.776       6.666       5.555       4.445       3.335       2.224       1.114      3.3313E-03
   9    9.997       8.887       7.776       6.666       5.555       4.445       3.335       2.224       1.114      3.3313E-03
  10    9.997       8.887       7.776       6.666       5.555       4.445       3.335       2.224       1.114      3.3313E-03

 HEAD WILL BE SAVED ON UNIT   51 AT END OF TIME STEP   84, STRESS PERIOD    2

 DRAWDOWN WILL BE SAVED ON UNIT   52 AT END OF TIME STEP   84, STRESS PERIOD    2
1
  VOLUMETRIC BUDGET FOR ENTIRE MODEL AT END OF TIME STEP   84, STRESS PERIOD   2
  ------------------------------------------------------------------------------

     CUMULATIVE VOLUMES      L**3       RATES FOR THIS TIME STEP      L**3/T
     ------------------                 ------------------------

           IN:                                      IN:
           ---                                      ---
             STORAGE =       1.0477E-08               STORAGE =           0.0000
       CONSTANT HEAD =           0.0000         CONSTANT HEAD =           0.0000
               WELLS =           0.0000                 WELLS =           0.0000
     HEAD DEP BOUNDS =       56636.5078       HEAD DEP BOUNDS =         666.3123

            TOTAL IN =       56636.5078              TOTAL IN =         666.3123

          OUT:                                     OUT:
          ----                                     ----
             STORAGE =       5.2387E-08               STORAGE =           0.0000
       CONSTANT HEAD =           0.0000         CONSTANT HEAD =           0.0000
               WELLS =           0.0000                 WELLS =           0.0000
     HEAD DEP BOUNDS =       56632.0078       HEAD DEP BOUNDS =         666.2595

           TOTAL OUT =       56632.0078             TOTAL OUT =         666.2595

            IN - OUT =           4.5000              IN - OUT =       5.2795E-02

 PERCENT DISCREPANCY =           0.01     PERCENT DISCREPANCY =           0.01






         TIME SUMMARY AT END OF TIME STEP   84 IN STRESS PERIOD    2
                    SECONDS     MINUTES      HOURS       DAYS        YEARS
                    -----------------------------------------------------------
   TIME STEP LENGTH  86400.      1440.0      24.000      1.0000     2.73785E-03
 STRESS PERIOD TIME 7.25760E+06 1.20960E+05  2016.0      84.000     0.22998    
         TOTAL TIME 7.34400E+06 1.22400E+05  2040.0      85.000     0.23272    
1
 
 SOLVING FOR HEAD 

 OUTPUT CONTROL FOR STRESS PERIOD    2   TIME STEP   85
    SAVE HEAD FOR ALL LAYERS
    SAVE DRAWDOWN FOR ALL LAYERS
    SAVE BUDGET
    PRINT HEAD FOR ALL LAYERS
    PRINT BUDGET
 UBDSV1 SAVING "         STORAGE" ON UNIT  53 AT TIME STEP 85, STRESS PERIOD   2
 UBDSV2 SAVING "   CONSTANT HEAD" ON UNIT  53 AT TIME STEP 85, STRESS PERIOD   2
 UBDSV1 SAVING "FLOW RIGHT FACE " ON UNIT  53 AT TIME STEP 85, STRESS PERIOD   2
 UBDSV1 SAVING "FLOW FRONT FACE " ON UNIT  53 AT TIME STEP 85, STRESS PERIOD   2
 UBDSV1 SAVING "FLOW LOWER FACE " ON UNIT  53 AT TIME STEP 85, STRESS PERIOD   2
1
              HEAD IN LAYER   1 AT END OF TIME STEP  85 IN STRESS PERIOD    2
  ---------------------------------------------------------------------------

            1           2           3           4           5           6           7           8           9          10
 ........................................................................................................................
   1    9.997       8.887       7.776       6.666       5.555       4.445       3.335       2.224       1.114      3.3313E-03
   2    9.997       8.887       7.776       6.666       5.555       4.445       3.335       2.224       1.114      3.3313E-03
   3    9.997       8.887       7.776       6.666       5.555       4.445       3.335       2.224       1.114      3.3313E-03
   4    9.997       8.887       7.776       6.666       5.555       4.445       3.335       2.224       1.114      3.3313E-03
   5    9.997       8.887       7.776       6.666       5.555       4.445       3.335       2.224       1.114      3.3313E-03
   6    9.997       8.887       7.776       6.666       5.555       4.445       3.335       2.224       1.114      3.3313E-03
   7    9.997       8.887       7.776       6.666       5.555       4.445       3.335       2.224       1.114      3.3313E-03
   8    9.997       8.887       7.776       6.666       5.555       4.445       3.335       2.224       1.114      3.3313E-03
   9    9.997       8.887       7.776       6.666       5.555       4.445       3.335       2.224       1.114      3.3313E-03
  10    9.997       8.887       7.776       6.666       5.555       4.445       3.335       2.224       1.114      3.3313E-03
1
              HEAD IN LAYER   2 AT END OF TIME STEP  85 IN STRESS PERIOD    2
  ---------------------------------------------------------------------------

            1           2           3           4           5           6           7           8           9          10
 ........................................................................................................................
   1    9.997       8.887       7.776       6.666       5.555       4.445       3.335       2.224       1.114      3.3313E-03
   2    9.997       8.887       7.776       6.666       5.555       4.445       3.335       2.224       1.114      3.3313E-03
   3    9.997       8.887       7.776       6.666       5.555       4.445       3.335       2.224       1.114      3.3313E-03
   4    9.997       8.887       7.776       6.666       5.555       4.445       3.335       2.224       1.114      3.3313E-03
   5    9.997       8.887       7.776       6.666       5.555       4.445       3.335       2.224       1.114      3.3313E-03
   6    9.997       8.887       7.776       6.666       5.555       4.445       3.335       2.224       1.114      3.3313E-03
   7    9.997       8.887       7.776       6.666       5.555       4.445       3.335       2.224       1.114      3.3313E-03
   8    9.997       8.887       7.776       6.666       5.555       4.445       3.335       2.224       1.114      3.3313E-03
   9    9.997       8.887       7.776       6.666       5.555       4.445       3.335       2.224       1.114      3.3313E-03
  10    9.997       8.887       7.776       6.666       5.555       4.445       3.335       2.224       1.114      3.3313E-03
1
              HEAD IN LAYER   3 AT END OF TIME STEP  85 IN STRESS PERIOD    2
  ---------------------------------------------------------------------------

            1           2           3           4           5           6           7           8           9          10
 ........................................................................................................................
   1    9.997       8.887       7.776       6.666       5.555       4.445       3.335       2.224       1.114      3.3313E-03
   2    9.997       8.887       7.776       6.666       5.555       4.445       3.335       2.224       1.114      3.3313E-03
   3    9.997       8.887       7.776       6.666       5.555       4.445       3.335       2.224       1.114      3.3313E-03
   4    9.997       8.887       7.776       6.666       5.555       4.445       3.335       2.224       1.114      3.3313E-03
   5    9.997       8.887       7.776       6.666       5.555       4.445       3.335       2.224       1.114      3.3313E-03
   6    9.997       8.887       7.776       6.666       5.555       4.445       3.335       2.224       1.114      3.3313E-03
   7    9.997       8.887       7.776       6.666       5.555       4.445       3.335       2.224       1.114      3.3313E-03
   8    9.997       8.887       7.776       6.666       5.555       4.445       3.335       2.224       1.114      3.3313E-03
   9    9.997       8.887       7.776       6.666       5.555       4.445       3.335       2.224       1.114      3.3313E-03
  10    9.997       8.887       7.776       6.666       5.555       4.445       3.335       2.224       1.114      3.3313E-03
1
              HEAD IN LAYER   4 AT END OF TIME STEP  85 IN STRESS PERIOD    2
  ---------------------------------------------------------------------------

            1           2           3           4           5           6           7           8           9          10
 ........................................................................................................................
   1    9.997       8.887       7.776       6.666       5.555       4.445       3.335       2.224       1.114      3.3313E-03
   2    9.997       8.887       7.776       6.666       5.555       4.445       3.335       2.224       1.114      3.3313E-03
   3    9.997       8.887       7.776       6.666       5.555       4.445       3.335       2.224       1.114      3.3313E-03
   4    9.997       8.887       7.776       6.666       5.555       4.445       3.335       2.224       1.114      3.3313E-03
   5    9.997       8.887       7.776       6.666       5.555       4.445       3.335       2.224       1.114      3.3313E-03
   6    9.997       8.887       7.776       6.666       5.555       4.445       3.335       2.224       1.114      3.3313E-03
   7    9.997       8.887       7.776       6.666       5.555       4.445       3.335       2.224       1.114      3.3313E-03
   8    9.997       8.887       7.776       6.666       5.555       4.445       3.335       2.224       1.114      3.3313E-03
   9    9.997       8.887       7.776       6.666       5.555       4.445       3.335       2.224       1.114      3.3313E-03
  10    9.997       8.887       7.776       6.666       5.555       4.445       3.335       2.224       1.114      3.3313E-03

 HEAD WILL BE SAVED ON UNIT   51 AT END OF TIME STEP   85, STRESS PERIOD    2

 DRAWDOWN WILL BE SAVED ON UNIT   52 AT END OF TIME STEP   85, STRESS PERIOD    2
1
  VOLUMETRIC BUDGET FOR ENTIRE MODEL AT END OF TIME STEP   85, STRESS PERIOD   2
  ------------------------------------------------------------------------------

     CUMULATIVE VOLUMES      L**3       RATES FOR THIS TIME STEP      L**3/T
     ------------------                 ------------------------

           IN:                                      IN:
           ---                                      ---
             STORAGE =       1.0477E-08               STORAGE =           0.0000
       CONSTANT HEAD =           0.0000         CONSTANT HEAD =           0.0000
               WELLS =           0.0000                 WELLS =           0.0000
     HEAD DEP BOUNDS =       57302.8203       HEAD DEP BOUNDS =         666.3123

            TOTAL IN =       57302.8203              TOTAL IN =         666.3123

          OUT:                                     OUT:
          ----                                     ----
             STORAGE =       5.2387E-08               STORAGE =           0.0000
       CONSTANT HEAD =           0.0000         CONSTANT HEAD =           0.0000
               WELLS =           0.0000                 WELLS =           0.0000
     HEAD DEP BOUNDS =       57298.2656       HEAD DEP BOUNDS =         666.2595

           TOTAL OUT =       57298.2656             TOTAL OUT =         666.2595

            IN - OUT =           4.5547              IN - OUT =       5.2795E-02

 PERCENT DISCREPANCY =           0.01     PERCENT DISCREPANCY =           0.01






         TIME SUMMARY AT END OF TIME STEP   85 IN STRESS PERIOD    2
                    SECONDS     MINUTES      HOURS       DAYS        YEARS
                    -----------------------------------------------------------
   TIME STEP LENGTH  86400.      1440.0      24.000      1.0000     2.73785E-03
 STRESS PERIOD TIME 7.34400E+06 1.22400E+05  2040.0      85.000     0.23272    
         TOTAL TIME 7.43040E+06 1.23840E+05  2064.0      86.000     0.23546    
1
 
 SOLVING FOR HEAD 

 OUTPUT CONTROL FOR STRESS PERIOD    2   TIME STEP   86
    SAVE HEAD FOR ALL LAYERS
    SAVE DRAWDOWN FOR ALL LAYERS
    SAVE BUDGET
    PRINT HEAD FOR ALL LAYERS
    PRINT BUDGET
 UBDSV1 SAVING "         STORAGE" ON UNIT  53 AT TIME STEP 86, STRESS PERIOD   2
 UBDSV2 SAVING "   CONSTANT HEAD" ON UNIT  53 AT TIME STEP 86, STRESS PERIOD   2
 UBDSV1 SAVING "FLOW RIGHT FACE " ON UNIT  53 AT TIME STEP 86, STRESS PERIOD   2
 UBDSV1 SAVING "FLOW FRONT FACE " ON UNIT  53 AT TIME STEP 86, STRESS PERIOD   2
 UBDSV1 SAVING "FLOW LOWER FACE " ON UNIT  53 AT TIME STEP 86, STRESS PERIOD   2
1
              HEAD IN LAYER   1 AT END OF TIME STEP  86 IN STRESS PERIOD    2
  ---------------------------------------------------------------------------

            1           2           3           4           5           6           7           8           9          10
 ........................................................................................................................
   1    9.997       8.887       7.776       6.666       5.555       4.445       3.335       2.224       1.114      3.3313E-03
   2    9.997       8.887       7.776       6.666       5.555       4.445       3.335       2.224       1.114      3.3313E-03
   3    9.997       8.887       7.776       6.666       5.555       4.445       3.335       2.224       1.114      3.3313E-03
   4    9.997       8.887       7.776       6.666       5.555       4.445       3.335       2.224       1.114      3.3313E-03
   5    9.997       8.887       7.776       6.666       5.555       4.445       3.335       2.224       1.114      3.3313E-03
   6    9.997       8.887       7.776       6.666       5.555       4.445       3.335       2.224       1.114      3.3313E-03
   7    9.997       8.887       7.776       6.666       5.555       4.445       3.335       2.224       1.114      3.3313E-03
   8    9.997       8.887       7.776       6.666       5.555       4.445       3.335       2.224       1.114      3.3313E-03
   9    9.997       8.887       7.776       6.666       5.555       4.445       3.335       2.224       1.114      3.3313E-03
  10    9.997       8.887       7.776       6.666       5.555       4.445       3.335       2.224       1.114      3.3313E-03
1
              HEAD IN LAYER   2 AT END OF TIME STEP  86 IN STRESS PERIOD    2
  ---------------------------------------------------------------------------

            1           2           3           4           5           6           7           8           9          10
 ........................................................................................................................
   1    9.997       8.887       7.776       6.666       5.555       4.445       3.335       2.224       1.114      3.3313E-03
   2    9.997       8.887       7.776       6.666       5.555       4.445       3.335       2.224       1.114      3.3313E-03
   3    9.997       8.887       7.776       6.666       5.555       4.445       3.335       2.224       1.114      3.3313E-03
   4    9.997       8.887       7.776       6.666       5.555       4.445       3.335       2.224       1.114      3.3313E-03
   5    9.997       8.887       7.776       6.666       5.555       4.445       3.335       2.224       1.114      3.3313E-03
   6    9.997       8.887       7.776       6.666       5.555       4.445       3.335       2.224       1.114      3.3313E-03
   7    9.997       8.887       7.776       6.666       5.555       4.445       3.335       2.224       1.114      3.3313E-03
   8    9.997       8.887       7.776       6.666       5.555       4.445       3.335       2.224       1.114      3.3313E-03
   9    9.997       8.887       7.776       6.666       5.555       4.445       3.335       2.224       1.114      3.3313E-03
  10    9.997       8.887       7.776       6.666       5.555       4.445       3.335       2.224       1.114      3.3313E-03
1
              HEAD IN LAYER   3 AT END OF TIME STEP  86 IN STRESS PERIOD    2
  ---------------------------------------------------------------------------

            1           2           3           4           5           6           7           8           9          10
 ........................................................................................................................
   1    9.997       8.887       7.776       6.666       5.555       4.445       3.335       2.224       1.114      3.3313E-03
   2    9.997       8.887       7.776       6.666       5.555       4.445       3.335       2.224       1.114      3.3313E-03
   3    9.997       8.887       7.776       6.666       5.555       4.445       3.335       2.224       1.114      3.3313E-03
   4    9.997       8.887       7.776       6.666       5.555       4.445       3.335       2.224       1.114      3.3313E-03
   5    9.997       8.887       7.776       6.666       5.555       4.445       3.335       2.224       1.114      3.3313E-03
   6    9.997       8.887       7.776       6.666       5.555       4.445       3.335       2.224       1.114      3.3313E-03
   7    9.997       8.887       7.776       6.666       5.555       4.445       3.335       2.224       1.114      3.3313E-03
   8    9.997       8.887       7.776       6.666       5.555       4.445       3.335       2.224       1.114      3.3313E-03
   9    9.997       8.887       7.776       6.666       5.555       4.445       3.335       2.224       1.114      3.3313E-03
  10    9.997       8.887       7.776       6.666       5.555       4.445       3.335       2.224       1.114      3.3313E-03
1
              HEAD IN LAYER   4 AT END OF TIME STEP  86 IN STRESS PERIOD    2
  ---------------------------------------------------------------------------

            1           2           3           4           5           6           7           8           9          10
 ........................................................................................................................
   1    9.997       8.887       7.776       6.666       5.555       4.445       3.335       2.224       1.114      3.3313E-03
   2    9.997       8.887       7.776       6.666       5.555       4.445       3.335       2.224       1.114      3.3313E-03
   3    9.997       8.887       7.776       6.666       5.555       4.445       3.335       2.224       1.114      3.3313E-03
   4    9.997       8.887       7.776       6.666       5.555       4.445       3.335       2.224       1.114      3.3313E-03
   5    9.997       8.887       7.776       6.666       5.555       4.445       3.335       2.224       1.114      3.3313E-03
   6    9.997       8.887       7.776       6.666       5.555       4.445       3.335       2.224       1.114      3.3313E-03
   7    9.997       8.887       7.776       6.666       5.555       4.445       3.335       2.224       1.114      3.3313E-03
   8    9.997       8.887       7.776       6.666       5.555       4.445       3.335       2.224       1.114      3.3313E-03
   9    9.997       8.887       7.776       6.666       5.555       4.445       3.335       2.224       1.114      3.3313E-03
  10    9.997       8.887       7.776       6.666       5.555       4.445       3.335       2.224       1.114      3.3313E-03

 HEAD WILL BE SAVED ON UNIT   51 AT END OF TIME STEP   86, STRESS PERIOD    2

 DRAWDOWN WILL BE SAVED ON UNIT   52 AT END OF TIME STEP   86, STRESS PERIOD    2
1
  VOLUMETRIC BUDGET FOR ENTIRE MODEL AT END OF TIME STEP   86, STRESS PERIOD   2
  ------------------------------------------------------------------------------

     CUMULATIVE VOLUMES      L**3       RATES FOR THIS TIME STEP      L**3/T
     ------------------                 ------------------------

           IN:                                      IN:
           ---                                      ---
             STORAGE =       1.0477E-08               STORAGE =           0.0000
       CONSTANT HEAD =           0.0000         CONSTANT HEAD =           0.0000
               WELLS =           0.0000                 WELLS =           0.0000
     HEAD DEP BOUNDS =       57969.1328       HEAD DEP BOUNDS =         666.3123

            TOTAL IN =       57969.1328              TOTAL IN =         666.3123

          OUT:                                     OUT:
          ----                                     ----
             STORAGE =       5.2387E-08               STORAGE =           0.0000
       CONSTANT HEAD =           0.0000         CONSTANT HEAD =           0.0000
               WELLS =           0.0000                 WELLS =           0.0000
     HEAD DEP BOUNDS =       57964.5234       HEAD DEP BOUNDS =         666.2595

           TOTAL OUT =       57964.5234             TOTAL OUT =         666.2595

            IN - OUT =           4.6094              IN - OUT =       5.2795E-02

 PERCENT DISCREPANCY =           0.01     PERCENT DISCREPANCY =           0.01






         TIME SUMMARY AT END OF TIME STEP   86 IN STRESS PERIOD    2
                    SECONDS     MINUTES      HOURS       DAYS        YEARS
                    -----------------------------------------------------------
   TIME STEP LENGTH  86400.      1440.0      24.000      1.0000     2.73785E-03
 STRESS PERIOD TIME 7.43040E+06 1.23840E+05  2064.0      86.000     0.23546    
         TOTAL TIME 7.51680E+06 1.25280E+05  2088.0      87.000     0.23819    
1
 
 SOLVING FOR HEAD 

 OUTPUT CONTROL FOR STRESS PERIOD    2   TIME STEP   87
    SAVE HEAD FOR ALL LAYERS
    SAVE DRAWDOWN FOR ALL LAYERS
    SAVE BUDGET
    PRINT HEAD FOR ALL LAYERS
    PRINT BUDGET
 UBDSV1 SAVING "         STORAGE" ON UNIT  53 AT TIME STEP 87, STRESS PERIOD   2
 UBDSV2 SAVING "   CONSTANT HEAD" ON UNIT  53 AT TIME STEP 87, STRESS PERIOD   2
 UBDSV1 SAVING "FLOW RIGHT FACE " ON UNIT  53 AT TIME STEP 87, STRESS PERIOD   2
 UBDSV1 SAVING "FLOW FRONT FACE " ON UNIT  53 AT TIME STEP 87, STRESS PERIOD   2
 UBDSV1 SAVING "FLOW LOWER FACE " ON UNIT  53 AT TIME STEP 87, STRESS PERIOD   2
1
              HEAD IN LAYER   1 AT END OF TIME STEP  87 IN STRESS PERIOD    2
  ---------------------------------------------------------------------------

            1           2           3           4           5           6           7           8           9          10
 ........................................................................................................................
   1    9.997       8.887       7.776       6.666       5.555       4.445       3.335       2.224       1.114      3.3313E-03
   2    9.997       8.887       7.776       6.666       5.555       4.445       3.335       2.224       1.114      3.3313E-03
   3    9.997       8.887       7.776       6.666       5.555       4.445       3.335       2.224       1.114      3.3313E-03
   4    9.997       8.887       7.776       6.666       5.555       4.445       3.335       2.224       1.114      3.3313E-03
   5    9.997       8.887       7.776       6.666       5.555       4.445       3.335       2.224       1.114      3.3313E-03
   6    9.997       8.887       7.776       6.666       5.555       4.445       3.335       2.224       1.114      3.3313E-03
   7    9.997       8.887       7.776       6.666       5.555       4.445       3.335       2.224       1.114      3.3313E-03
   8    9.997       8.887       7.776       6.666       5.555       4.445       3.335       2.224       1.114      3.3313E-03
   9    9.997       8.887       7.776       6.666       5.555       4.445       3.335       2.224       1.114      3.3313E-03
  10    9.997       8.887       7.776       6.666       5.555       4.445       3.335       2.224       1.114      3.3313E-03
1
              HEAD IN LAYER   2 AT END OF TIME STEP  87 IN STRESS PERIOD    2
  ---------------------------------------------------------------------------

            1           2           3           4           5           6           7           8           9          10
 ........................................................................................................................
   1    9.997       8.887       7.776       6.666       5.555       4.445       3.335       2.224       1.114      3.3313E-03
   2    9.997       8.887       7.776       6.666       5.555       4.445       3.335       2.224       1.114      3.3313E-03
   3    9.997       8.887       7.776       6.666       5.555       4.445       3.335       2.224       1.114      3.3313E-03
   4    9.997       8.887       7.776       6.666       5.555       4.445       3.335       2.224       1.114      3.3313E-03
   5    9.997       8.887       7.776       6.666       5.555       4.445       3.335       2.224       1.114      3.3313E-03
   6    9.997       8.887       7.776       6.666       5.555       4.445       3.335       2.224       1.114      3.3313E-03
   7    9.997       8.887       7.776       6.666       5.555       4.445       3.335       2.224       1.114      3.3313E-03
   8    9.997       8.887       7.776       6.666       5.555       4.445       3.335       2.224       1.114      3.3313E-03
   9    9.997       8.887       7.776       6.666       5.555       4.445       3.335       2.224       1.114      3.3313E-03
  10    9.997       8.887       7.776       6.666       5.555       4.445       3.335       2.224       1.114      3.3313E-03
1
              HEAD IN LAYER   3 AT END OF TIME STEP  87 IN STRESS PERIOD    2
  ---------------------------------------------------------------------------

            1           2           3           4           5           6           7           8           9          10
 ........................................................................................................................
   1    9.997       8.887       7.776       6.666       5.555       4.445       3.335       2.224       1.114      3.3313E-03
   2    9.997       8.887       7.776       6.666       5.555       4.445       3.335       2.224       1.114      3.3313E-03
   3    9.997       8.887       7.776       6.666       5.555       4.445       3.335       2.224       1.114      3.3313E-03
   4    9.997       8.887       7.776       6.666       5.555       4.445       3.335       2.224       1.114      3.3313E-03
   5    9.997       8.887       7.776       6.666       5.555       4.445       3.335       2.224       1.114      3.3313E-03
   6    9.997       8.887       7.776       6.666       5.555       4.445       3.335       2.224       1.114      3.3313E-03
   7    9.997       8.887       7.776       6.666       5.555       4.445       3.335       2.224       1.114      3.3313E-03
   8    9.997       8.887       7.776       6.666       5.555       4.445       3.335       2.224       1.114      3.3313E-03
   9    9.997       8.887       7.776       6.666       5.555       4.445       3.335       2.224       1.114      3.3313E-03
  10    9.997       8.887       7.776       6.666       5.555       4.445       3.335       2.224       1.114      3.3313E-03
1
              HEAD IN LAYER   4 AT END OF TIME STEP  87 IN STRESS PERIOD    2
  ---------------------------------------------------------------------------

            1           2           3           4           5           6           7           8           9          10
 ........................................................................................................................
   1    9.997       8.887       7.776       6.666       5.555       4.445       3.335       2.224       1.114      3.3313E-03
   2    9.997       8.887       7.776       6.666       5.555       4.445       3.335       2.224       1.114      3.3313E-03
   3    9.997       8.887       7.776       6.666       5.555       4.445       3.335       2.224       1.114      3.3313E-03
   4    9.997       8.887       7.776       6.666       5.555       4.445       3.335       2.224       1.114      3.3313E-03
   5    9.997       8.887       7.776       6.666       5.555       4.445       3.335       2.224       1.114      3.3313E-03
   6    9.997       8.887       7.776       6.666       5.555       4.445       3.335       2.224       1.114      3.3313E-03
   7    9.997       8.887       7.776       6.666       5.555       4.445       3.335       2.224       1.114      3.3313E-03
   8    9.997       8.887       7.776       6.666       5.555       4.445       3.335       2.224       1.114      3.3313E-03
   9    9.997       8.887       7.776       6.666       5.555       4.445       3.335       2.224       1.114      3.3313E-03
  10    9.997       8.887       7.776       6.666       5.555       4.445       3.335       2.224       1.114      3.3313E-03

 HEAD WILL BE SAVED ON UNIT   51 AT END OF TIME STEP   87, STRESS PERIOD    2

 DRAWDOWN WILL BE SAVED ON UNIT   52 AT END OF TIME STEP   87, STRESS PERIOD    2
1
  VOLUMETRIC BUDGET FOR ENTIRE MODEL AT END OF TIME STEP   87, STRESS PERIOD   2
  ------------------------------------------------------------------------------

     CUMULATIVE VOLUMES      L**3       RATES FOR THIS TIME STEP      L**3/T
     ------------------                 ------------------------

           IN:                                      IN:
           ---                                      ---
             STORAGE =       1.0477E-08               STORAGE =           0.0000
       CONSTANT HEAD =           0.0000         CONSTANT HEAD =           0.0000
               WELLS =           0.0000                 WELLS =           0.0000
     HEAD DEP BOUNDS =       58635.4453       HEAD DEP BOUNDS =         666.3123

            TOTAL IN =       58635.4453              TOTAL IN =         666.3123

          OUT:                                     OUT:
          ----                                     ----
             STORAGE =       5.2387E-08               STORAGE =           0.0000
       CONSTANT HEAD =           0.0000         CONSTANT HEAD =           0.0000
               WELLS =           0.0000                 WELLS =           0.0000
     HEAD DEP BOUNDS =       58630.7812       HEAD DEP BOUNDS =         666.2595

           TOTAL OUT =       58630.7812             TOTAL OUT =         666.2595

            IN - OUT =           4.6641              IN - OUT =       5.2795E-02

 PERCENT DISCREPANCY =           0.01     PERCENT DISCREPANCY =           0.01






         TIME SUMMARY AT END OF TIME STEP   87 IN STRESS PERIOD    2
                    SECONDS     MINUTES      HOURS       DAYS        YEARS
                    -----------------------------------------------------------
   TIME STEP LENGTH  86400.      1440.0      24.000      1.0000     2.73785E-03
 STRESS PERIOD TIME 7.51680E+06 1.25280E+05  2088.0      87.000     0.23819    
         TOTAL TIME 7.60320E+06 1.26720E+05  2112.0      88.000     0.24093    
1
 
 SOLVING FOR HEAD 

 OUTPUT CONTROL FOR STRESS PERIOD    2   TIME STEP   88
    SAVE HEAD FOR ALL LAYERS
    SAVE DRAWDOWN FOR ALL LAYERS
    SAVE BUDGET
    PRINT HEAD FOR ALL LAYERS
    PRINT BUDGET
 UBDSV1 SAVING "         STORAGE" ON UNIT  53 AT TIME STEP 88, STRESS PERIOD   2
 UBDSV2 SAVING "   CONSTANT HEAD" ON UNIT  53 AT TIME STEP 88, STRESS PERIOD   2
 UBDSV1 SAVING "FLOW RIGHT FACE " ON UNIT  53 AT TIME STEP 88, STRESS PERIOD   2
 UBDSV1 SAVING "FLOW FRONT FACE " ON UNIT  53 AT TIME STEP 88, STRESS PERIOD   2
 UBDSV1 SAVING "FLOW LOWER FACE " ON UNIT  53 AT TIME STEP 88, STRESS PERIOD   2
1
              HEAD IN LAYER   1 AT END OF TIME STEP  88 IN STRESS PERIOD    2
  ---------------------------------------------------------------------------

            1           2           3           4           5           6           7           8           9          10
 ........................................................................................................................
   1    9.997       8.887       7.776       6.666       5.555       4.445       3.335       2.224       1.114      3.3313E-03
   2    9.997       8.887       7.776       6.666       5.555       4.445       3.335       2.224       1.114      3.3313E-03
   3    9.997       8.887       7.776       6.666       5.555       4.445       3.335       2.224       1.114      3.3313E-03
   4    9.997       8.887       7.776       6.666       5.555       4.445       3.335       2.224       1.114      3.3313E-03
   5    9.997       8.887       7.776       6.666       5.555       4.445       3.335       2.224       1.114      3.3313E-03
   6    9.997       8.887       7.776       6.666       5.555       4.445       3.335       2.224       1.114      3.3313E-03
   7    9.997       8.887       7.776       6.666       5.555       4.445       3.335       2.224       1.114      3.3313E-03
   8    9.997       8.887       7.776       6.666       5.555       4.445       3.335       2.224       1.114      3.3313E-03
   9    9.997       8.887       7.776       6.666       5.555       4.445       3.335       2.224       1.114      3.3313E-03
  10    9.997       8.887       7.776       6.666       5.555       4.445       3.335       2.224       1.114      3.3313E-03
1
              HEAD IN LAYER   2 AT END OF TIME STEP  88 IN STRESS PERIOD    2
  ---------------------------------------------------------------------------

            1           2           3           4           5           6           7           8           9          10
 ........................................................................................................................
   1    9.997       8.887       7.776       6.666       5.555       4.445       3.335       2.224       1.114      3.3313E-03
   2    9.997       8.887       7.776       6.666       5.555       4.445       3.335       2.224       1.114      3.3313E-03
   3    9.997       8.887       7.776       6.666       5.555       4.445       3.335       2.224       1.114      3.3313E-03
   4    9.997       8.887       7.776       6.666       5.555       4.445       3.335       2.224       1.114      3.3313E-03
   5    9.997       8.887       7.776       6.666       5.555       4.445       3.335       2.224       1.114      3.3313E-03
   6    9.997       8.887       7.776       6.666       5.555       4.445       3.335       2.224       1.114      3.3313E-03
   7    9.997       8.887       7.776       6.666       5.555       4.445       3.335       2.224       1.114      3.3313E-03
   8    9.997       8.887       7.776       6.666       5.555       4.445       3.335       2.224       1.114      3.3313E-03
   9    9.997       8.887       7.776       6.666       5.555       4.445       3.335       2.224       1.114      3.3313E-03
  10    9.997       8.887       7.776       6.666       5.555       4.445       3.335       2.224       1.114      3.3313E-03
1
              HEAD IN LAYER   3 AT END OF TIME STEP  88 IN STRESS PERIOD    2
  ---------------------------------------------------------------------------

            1           2           3           4           5           6           7           8           9          10
 ........................................................................................................................
   1    9.997       8.887       7.776       6.666       5.555       4.445       3.335       2.224       1.114      3.3313E-03
   2    9.997       8.887       7.776       6.666       5.555       4.445       3.335       2.224       1.114      3.3313E-03
   3    9.997       8.887       7.776       6.666       5.555       4.445       3.335       2.224       1.114      3.3313E-03
   4    9.997       8.887       7.776       6.666       5.555       4.445       3.335       2.224       1.114      3.3313E-03
   5    9.997       8.887       7.776       6.666       5.555       4.445       3.335       2.224       1.114      3.3313E-03
   6    9.997       8.887       7.776       6.666       5.555       4.445       3.335       2.224       1.114      3.3313E-03
   7    9.997       8.887       7.776       6.666       5.555       4.445       3.335       2.224       1.114      3.3313E-03
   8    9.997       8.887       7.776       6.666       5.555       4.445       3.335       2.224       1.114      3.3313E-03
   9    9.997       8.887       7.776       6.666       5.555       4.445       3.335       2.224       1.114      3.3313E-03
  10    9.997       8.887       7.776       6.666       5.555       4.445       3.335       2.224       1.114      3.3313E-03
1
              HEAD IN LAYER   4 AT END OF TIME STEP  88 IN STRESS PERIOD    2
  ---------------------------------------------------------------------------

            1           2           3           4           5           6           7           8           9          10
 ........................................................................................................................
   1    9.997       8.887       7.776       6.666       5.555       4.445       3.335       2.224       1.114      3.3313E-03
   2    9.997       8.887       7.776       6.666       5.555       4.445       3.335       2.224       1.114      3.3313E-03
   3    9.997       8.887       7.776       6.666       5.555       4.445       3.335       2.224       1.114      3.3313E-03
   4    9.997       8.887       7.776       6.666       5.555       4.445       3.335       2.224       1.114      3.3313E-03
   5    9.997       8.887       7.776       6.666       5.555       4.445       3.335       2.224       1.114      3.3313E-03
   6    9.997       8.887       7.776       6.666       5.555       4.445       3.335       2.224       1.114      3.3313E-03
   7    9.997       8.887       7.776       6.666       5.555       4.445       3.335       2.224       1.114      3.3313E-03
   8    9.997       8.887       7.776       6.666       5.555       4.445       3.335       2.224       1.114      3.3313E-03
   9    9.997       8.887       7.776       6.666       5.555       4.445       3.335       2.224       1.114      3.3313E-03
  10    9.997       8.887       7.776       6.666       5.555       4.445       3.335       2.224       1.114      3.3313E-03

 HEAD WILL BE SAVED ON UNIT   51 AT END OF TIME STEP   88, STRESS PERIOD    2

 DRAWDOWN WILL BE SAVED ON UNIT   52 AT END OF TIME STEP   88, STRESS PERIOD    2
1
  VOLUMETRIC BUDGET FOR ENTIRE MODEL AT END OF TIME STEP   88, STRESS PERIOD   2
  ------------------------------------------------------------------------------

     CUMULATIVE VOLUMES      L**3       RATES FOR THIS TIME STEP      L**3/T
     ------------------                 ------------------------

           IN:                                      IN:
           ---                                      ---
             STORAGE =       1.0477E-08               STORAGE =           0.0000
       CONSTANT HEAD =           0.0000         CONSTANT HEAD =           0.0000
               WELLS =           0.0000                 WELLS =           0.0000
     HEAD DEP BOUNDS =       59301.7578       HEAD DEP BOUNDS =         666.3123

            TOTAL IN =       59301.7578              TOTAL IN =         666.3123

          OUT:                                     OUT:
          ----                                     ----
             STORAGE =       5.2387E-08               STORAGE =           0.0000
       CONSTANT HEAD =           0.0000         CONSTANT HEAD =           0.0000
               WELLS =           0.0000                 WELLS =           0.0000
     HEAD DEP BOUNDS =       59297.0391       HEAD DEP BOUNDS =         666.2595

           TOTAL OUT =       59297.0391             TOTAL OUT =         666.2595

            IN - OUT =           4.7188              IN - OUT =       5.2795E-02

 PERCENT DISCREPANCY =           0.01     PERCENT DISCREPANCY =           0.01






         TIME SUMMARY AT END OF TIME STEP   88 IN STRESS PERIOD    2
                    SECONDS     MINUTES      HOURS       DAYS        YEARS
                    -----------------------------------------------------------
   TIME STEP LENGTH  86400.      1440.0      24.000      1.0000     2.73785E-03
 STRESS PERIOD TIME 7.60320E+06 1.26720E+05  2112.0      88.000     0.24093    
         TOTAL TIME 7.68960E+06 1.28160E+05  2136.0      89.000     0.24367    
1
 
 SOLVING FOR HEAD 

 OUTPUT CONTROL FOR STRESS PERIOD    2   TIME STEP   89
    SAVE HEAD FOR ALL LAYERS
    SAVE DRAWDOWN FOR ALL LAYERS
    SAVE BUDGET
    PRINT HEAD FOR ALL LAYERS
    PRINT BUDGET
 UBDSV1 SAVING "         STORAGE" ON UNIT  53 AT TIME STEP 89, STRESS PERIOD   2
 UBDSV2 SAVING "   CONSTANT HEAD" ON UNIT  53 AT TIME STEP 89, STRESS PERIOD   2
 UBDSV1 SAVING "FLOW RIGHT FACE " ON UNIT  53 AT TIME STEP 89, STRESS PERIOD   2
 UBDSV1 SAVING "FLOW FRONT FACE " ON UNIT  53 AT TIME STEP 89, STRESS PERIOD   2
 UBDSV1 SAVING "FLOW LOWER FACE " ON UNIT  53 AT TIME STEP 89, STRESS PERIOD   2
1
              HEAD IN LAYER   1 AT END OF TIME STEP  89 IN STRESS PERIOD    2
  ---------------------------------------------------------------------------

            1           2           3           4           5           6           7           8           9          10
 ........................................................................................................................
   1    9.997       8.887       7.776       6.666       5.555       4.445       3.335       2.224       1.114      3.3313E-03
   2    9.997       8.887       7.776       6.666       5.555       4.445       3.335       2.224       1.114      3.3313E-03
   3    9.997       8.887       7.776       6.666       5.555       4.445       3.335       2.224       1.114      3.3313E-03
   4    9.997       8.887       7.776       6.666       5.555       4.445       3.335       2.224       1.114      3.3313E-03
   5    9.997       8.887       7.776       6.666       5.555       4.445       3.335       2.224       1.114      3.3313E-03
   6    9.997       8.887       7.776       6.666       5.555       4.445       3.335       2.224       1.114      3.3313E-03
   7    9.997       8.887       7.776       6.666       5.555       4.445       3.335       2.224       1.114      3.3313E-03
   8    9.997       8.887       7.776       6.666       5.555       4.445       3.335       2.224       1.114      3.3313E-03
   9    9.997       8.887       7.776       6.666       5.555       4.445       3.335       2.224       1.114      3.3313E-03
  10    9.997       8.887       7.776       6.666       5.555       4.445       3.335       2.224       1.114      3.3313E-03
1
              HEAD IN LAYER   2 AT END OF TIME STEP  89 IN STRESS PERIOD    2
  ---------------------------------------------------------------------------

            1           2           3           4           5           6           7           8           9          10
 ........................................................................................................................
   1    9.997       8.887       7.776       6.666       5.555       4.445       3.335       2.224       1.114      3.3313E-03
   2    9.997       8.887       7.776       6.666       5.555       4.445       3.335       2.224       1.114      3.3313E-03
   3    9.997       8.887       7.776       6.666       5.555       4.445       3.335       2.224       1.114      3.3313E-03
   4    9.997       8.887       7.776       6.666       5.555       4.445       3.335       2.224       1.114      3.3313E-03
   5    9.997       8.887       7.776       6.666       5.555       4.445       3.335       2.224       1.114      3.3313E-03
   6    9.997       8.887       7.776       6.666       5.555       4.445       3.335       2.224       1.114      3.3313E-03
   7    9.997       8.887       7.776       6.666       5.555       4.445       3.335       2.224       1.114      3.3313E-03
   8    9.997       8.887       7.776       6.666       5.555       4.445       3.335       2.224       1.114      3.3313E-03
   9    9.997       8.887       7.776       6.666       5.555       4.445       3.335       2.224       1.114      3.3313E-03
  10    9.997       8.887       7.776       6.666       5.555       4.445       3.335       2.224       1.114      3.3313E-03
1
              HEAD IN LAYER   3 AT END OF TIME STEP  89 IN STRESS PERIOD    2
  ---------------------------------------------------------------------------

            1           2           3           4           5           6           7           8           9          10
 ........................................................................................................................
   1    9.997       8.887       7.776       6.666       5.555       4.445       3.335       2.224       1.114      3.3313E-03
   2    9.997       8.887       7.776       6.666       5.555       4.445       3.335       2.224       1.114      3.3313E-03
   3    9.997       8.887       7.776       6.666       5.555       4.445       3.335       2.224       1.114      3.3313E-03
   4    9.997       8.887       7.776       6.666       5.555       4.445       3.335       2.224       1.114      3.3313E-03
   5    9.997       8.887       7.776       6.666       5.555       4.445       3.335       2.224       1.114      3.3313E-03
   6    9.997       8.887       7.776       6.666       5.555       4.445       3.335       2.224       1.114      3.3313E-03
   7    9.997       8.887       7.776       6.666       5.555       4.445       3.335       2.224       1.114      3.3313E-03
   8    9.997       8.887       7.776       6.666       5.555       4.445       3.335       2.224       1.114      3.3313E-03
   9    9.997       8.887       7.776       6.666       5.555       4.445       3.335       2.224       1.114      3.3313E-03
  10    9.997       8.887       7.776       6.666       5.555       4.445       3.335       2.224       1.114      3.3313E-03
1
              HEAD IN LAYER   4 AT END OF TIME STEP  89 IN STRESS PERIOD    2
  ---------------------------------------------------------------------------

            1           2           3           4           5           6           7           8           9          10
 ........................................................................................................................
   1    9.997       8.887       7.776       6.666       5.555       4.445       3.335       2.224       1.114      3.3313E-03
   2    9.997       8.887       7.776       6.666       5.555       4.445       3.335       2.224       1.114      3.3313E-03
   3    9.997       8.887       7.776       6.666       5.555       4.445       3.335       2.224       1.114      3.3313E-03
   4    9.997       8.887       7.776       6.666       5.555       4.445       3.335       2.224       1.114      3.3313E-03
   5    9.997       8.887       7.776       6.666       5.555       4.445       3.335       2.224       1.114      3.3313E-03
   6    9.997       8.887       7.776       6.666       5.555       4.445       3.335       2.224       1.114      3.3313E-03
   7    9.997       8.887       7.776       6.666       5.555       4.445       3.335       2.224       1.114      3.3313E-03
   8    9.997       8.887       7.776       6.666       5.555       4.445       3.335       2.224       1.114      3.3313E-03
   9    9.997       8.887       7.776       6.666       5.555       4.445       3.335       2.224       1.114      3.3313E-03
  10    9.997       8.887       7.776       6.666       5.555       4.445       3.335       2.224       1.114      3.3313E-03

 HEAD WILL BE SAVED ON UNIT   51 AT END OF TIME STEP   89, STRESS PERIOD    2

 DRAWDOWN WILL BE SAVED ON UNIT   52 AT END OF TIME STEP   89, STRESS PERIOD    2
1
  VOLUMETRIC BUDGET FOR ENTIRE MODEL AT END OF TIME STEP   89, STRESS PERIOD   2
  ------------------------------------------------------------------------------

     CUMULATIVE VOLUMES      L**3       RATES FOR THIS TIME STEP      L**3/T
     ------------------                 ------------------------

           IN:                                      IN:
           ---                                      ---
             STORAGE =       1.0477E-08               STORAGE =           0.0000
       CONSTANT HEAD =           0.0000         CONSTANT HEAD =           0.0000
               WELLS =           0.0000                 WELLS =           0.0000
     HEAD DEP BOUNDS =       59968.0703       HEAD DEP BOUNDS =         666.3123

            TOTAL IN =       59968.0703              TOTAL IN =         666.3123

          OUT:                                     OUT:
          ----                                     ----
             STORAGE =       5.2387E-08               STORAGE =           0.0000
       CONSTANT HEAD =           0.0000         CONSTANT HEAD =           0.0000
               WELLS =           0.0000                 WELLS =           0.0000
     HEAD DEP BOUNDS =       59963.2969       HEAD DEP BOUNDS =         666.2595

           TOTAL OUT =       59963.2969             TOTAL OUT =         666.2595

            IN - OUT =           4.7734              IN - OUT =       5.2795E-02

 PERCENT DISCREPANCY =           0.01     PERCENT DISCREPANCY =           0.01






         TIME SUMMARY AT END OF TIME STEP   89 IN STRESS PERIOD    2
                    SECONDS     MINUTES      HOURS       DAYS        YEARS
                    -----------------------------------------------------------
   TIME STEP LENGTH  86400.      1440.0      24.000      1.0000     2.73785E-03
 STRESS PERIOD TIME 7.68960E+06 1.28160E+05  2136.0      89.000     0.24367    
         TOTAL TIME 7.77600E+06 1.29600E+05  2160.0      90.000     0.24641    
1
 
 SOLVING FOR HEAD 

 OUTPUT CONTROL FOR STRESS PERIOD    2   TIME STEP   90
    SAVE HEAD FOR ALL LAYERS
    SAVE DRAWDOWN FOR ALL LAYERS
    SAVE BUDGET
    PRINT HEAD FOR ALL LAYERS
    PRINT BUDGET
 UBDSV1 SAVING "         STORAGE" ON UNIT  53 AT TIME STEP 90, STRESS PERIOD   2
 UBDSV2 SAVING "   CONSTANT HEAD" ON UNIT  53 AT TIME STEP 90, STRESS PERIOD   2
 UBDSV1 SAVING "FLOW RIGHT FACE " ON UNIT  53 AT TIME STEP 90, STRESS PERIOD   2
 UBDSV1 SAVING "FLOW FRONT FACE " ON UNIT  53 AT TIME STEP 90, STRESS PERIOD   2
 UBDSV1 SAVING "FLOW LOWER FACE " ON UNIT  53 AT TIME STEP 90, STRESS PERIOD   2
1
              HEAD IN LAYER   1 AT END OF TIME STEP  90 IN STRESS PERIOD    2
  ---------------------------------------------------------------------------

            1           2           3           4           5           6           7           8           9          10
 ........................................................................................................................
   1    9.997       8.887       7.776       6.666       5.555       4.445       3.335       2.224       1.114      3.3313E-03
   2    9.997       8.887       7.776       6.666       5.555       4.445       3.335       2.224       1.114      3.3313E-03
   3    9.997       8.887       7.776       6.666       5.555       4.445       3.335       2.224       1.114      3.3313E-03
   4    9.997       8.887       7.776       6.666       5.555       4.445       3.335       2.224       1.114      3.3313E-03
   5    9.997       8.887       7.776       6.666       5.555       4.445       3.335       2.224       1.114      3.3313E-03
   6    9.997       8.887       7.776       6.666       5.555       4.445       3.335       2.224       1.114      3.3313E-03
   7    9.997       8.887       7.776       6.666       5.555       4.445       3.335       2.224       1.114      3.3313E-03
   8    9.997       8.887       7.776       6.666       5.555       4.445       3.335       2.224       1.114      3.3313E-03
   9    9.997       8.887       7.776       6.666       5.555       4.445       3.335       2.224       1.114      3.3313E-03
  10    9.997       8.887       7.776       6.666       5.555       4.445       3.335       2.224       1.114      3.3313E-03
1
              HEAD IN LAYER   2 AT END OF TIME STEP  90 IN STRESS PERIOD    2
  ---------------------------------------------------------------------------

            1           2           3           4           5           6           7           8           9          10
 ........................................................................................................................
   1    9.997       8.887       7.776       6.666       5.555       4.445       3.335       2.224       1.114      3.3313E-03
   2    9.997       8.887       7.776       6.666       5.555       4.445       3.335       2.224       1.114      3.3313E-03
   3    9.997       8.887       7.776       6.666       5.555       4.445       3.335       2.224       1.114      3.3313E-03
   4    9.997       8.887       7.776       6.666       5.555       4.445       3.335       2.224       1.114      3.3313E-03
   5    9.997       8.887       7.776       6.666       5.555       4.445       3.335       2.224       1.114      3.3313E-03
   6    9.997       8.887       7.776       6.666       5.555       4.445       3.335       2.224       1.114      3.3313E-03
   7    9.997       8.887       7.776       6.666       5.555       4.445       3.335       2.224       1.114      3.3313E-03
   8    9.997       8.887       7.776       6.666       5.555       4.445       3.335       2.224       1.114      3.3313E-03
   9    9.997       8.887       7.776       6.666       5.555       4.445       3.335       2.224       1.114      3.3313E-03
  10    9.997       8.887       7.776       6.666       5.555       4.445       3.335       2.224       1.114      3.3313E-03
1
              HEAD IN LAYER   3 AT END OF TIME STEP  90 IN STRESS PERIOD    2
  ---------------------------------------------------------------------------

            1           2           3           4           5           6           7           8           9          10
 ........................................................................................................................
   1    9.997       8.887       7.776       6.666       5.555       4.445       3.335       2.224       1.114      3.3313E-03
   2    9.997       8.887       7.776       6.666       5.555       4.445       3.335       2.224       1.114      3.3313E-03
   3    9.997       8.887       7.776       6.666       5.555       4.445       3.335       2.224       1.114      3.3313E-03
   4    9.997       8.887       7.776       6.666       5.555       4.445       3.335       2.224       1.114      3.3313E-03
   5    9.997       8.887       7.776       6.666       5.555       4.445       3.335       2.224       1.114      3.3313E-03
   6    9.997       8.887       7.776       6.666       5.555       4.445       3.335       2.224       1.114      3.3313E-03
   7    9.997       8.887       7.776       6.666       5.555       4.445       3.335       2.224       1.114      3.3313E-03
   8    9.997       8.887       7.776       6.666       5.555       4.445       3.335       2.224       1.114      3.3313E-03
   9    9.997       8.887       7.776       6.666       5.555       4.445       3.335       2.224       1.114      3.3313E-03
  10    9.997       8.887       7.776       6.666       5.555       4.445       3.335       2.224       1.114      3.3313E-03
1
              HEAD IN LAYER   4 AT END OF TIME STEP  90 IN STRESS PERIOD    2
  ---------------------------------------------------------------------------

            1           2           3           4           5           6           7           8           9          10
 ........................................................................................................................
   1    9.997       8.887       7.776       6.666       5.555       4.445       3.335       2.224       1.114      3.3313E-03
   2    9.997       8.887       7.776       6.666       5.555       4.445       3.335       2.224       1.114      3.3313E-03
   3    9.997       8.887       7.776       6.666       5.555       4.445       3.335       2.224       1.114      3.3313E-03
   4    9.997       8.887       7.776       6.666       5.555       4.445       3.335       2.224       1.114      3.3313E-03
   5    9.997       8.887       7.776       6.666       5.555       4.445       3.335       2.224       1.114      3.3313E-03
   6    9.997       8.887       7.776       6.666       5.555       4.445       3.335       2.224       1.114      3.3313E-03
   7    9.997       8.887       7.776       6.666       5.555       4.445       3.335       2.224       1.114      3.3313E-03
   8    9.997       8.887       7.776       6.666       5.555       4.445       3.335       2.224       1.114      3.3313E-03
   9    9.997       8.887       7.776       6.666       5.555       4.445       3.335       2.224       1.114      3.3313E-03
  10    9.997       8.887       7.776       6.666       5.555       4.445       3.335       2.224       1.114      3.3313E-03

 HEAD WILL BE SAVED ON UNIT   51 AT END OF TIME STEP   90, STRESS PERIOD    2

 DRAWDOWN WILL BE SAVED ON UNIT   52 AT END OF TIME STEP   90, STRESS PERIOD    2
1
  VOLUMETRIC BUDGET FOR ENTIRE MODEL AT END OF TIME STEP   90, STRESS PERIOD   2
  ------------------------------------------------------------------------------

     CUMULATIVE VOLUMES      L**3       RATES FOR THIS TIME STEP      L**3/T
     ------------------                 ------------------------

           IN:                                      IN:
           ---                                      ---
             STORAGE =       1.0477E-08               STORAGE =           0.0000
       CONSTANT HEAD =           0.0000         CONSTANT HEAD =           0.0000
               WELLS =           0.0000                 WELLS =           0.0000
     HEAD DEP BOUNDS =       60634.3828       HEAD DEP BOUNDS =         666.3123

            TOTAL IN =       60634.3828              TOTAL IN =         666.3123

          OUT:                                     OUT:
          ----                                     ----
             STORAGE =       5.2387E-08               STORAGE =           0.0000
       CONSTANT HEAD =           0.0000         CONSTANT HEAD =           0.0000
               WELLS =           0.0000                 WELLS =           0.0000
     HEAD DEP BOUNDS =       60629.5547       HEAD DEP BOUNDS =         666.2595

           TOTAL OUT =       60629.5547             TOTAL OUT =         666.2595

            IN - OUT =           4.8281              IN - OUT =       5.2795E-02

 PERCENT DISCREPANCY =           0.01     PERCENT DISCREPANCY =           0.01






         TIME SUMMARY AT END OF TIME STEP   90 IN STRESS PERIOD    2
                    SECONDS     MINUTES      HOURS       DAYS        YEARS
                    -----------------------------------------------------------
   TIME STEP LENGTH  86400.      1440.0      24.000      1.0000     2.73785E-03
 STRESS PERIOD TIME 7.77600E+06 1.29600E+05  2160.0      90.000     0.24641    
         TOTAL TIME 7.86240E+06 1.31040E+05  2184.0      91.000     0.24914    
1
 
 SOLVING FOR HEAD 

 OUTPUT CONTROL FOR STRESS PERIOD    2   TIME STEP   91
    SAVE HEAD FOR ALL LAYERS
    SAVE DRAWDOWN FOR ALL LAYERS
    SAVE BUDGET
    PRINT HEAD FOR ALL LAYERS
    PRINT BUDGET
 UBDSV1 SAVING "         STORAGE" ON UNIT  53 AT TIME STEP 91, STRESS PERIOD   2
 UBDSV2 SAVING "   CONSTANT HEAD" ON UNIT  53 AT TIME STEP 91, STRESS PERIOD   2
 UBDSV1 SAVING "FLOW RIGHT FACE " ON UNIT  53 AT TIME STEP 91, STRESS PERIOD   2
 UBDSV1 SAVING "FLOW FRONT FACE " ON UNIT  53 AT TIME STEP 91, STRESS PERIOD   2
 UBDSV1 SAVING "FLOW LOWER FACE " ON UNIT  53 AT TIME STEP 91, STRESS PERIOD   2
1
              HEAD IN LAYER   1 AT END OF TIME STEP  91 IN STRESS PERIOD    2
  ---------------------------------------------------------------------------

            1           2           3           4           5           6           7           8           9          10
 ........................................................................................................................
   1    9.997       8.887       7.776       6.666       5.555       4.445       3.335       2.224       1.114      3.3313E-03
   2    9.997       8.887       7.776       6.666       5.555       4.445       3.335       2.224       1.114      3.3313E-03
   3    9.997       8.887       7.776       6.666       5.555       4.445       3.335       2.224       1.114      3.3313E-03
   4    9.997       8.887       7.776       6.666       5.555       4.445       3.335       2.224       1.114      3.3313E-03
   5    9.997       8.887       7.776       6.666       5.555       4.445       3.335       2.224       1.114      3.3313E-03
   6    9.997       8.887       7.776       6.666       5.555       4.445       3.335       2.224       1.114      3.3313E-03
   7    9.997       8.887       7.776       6.666       5.555       4.445       3.335       2.224       1.114      3.3313E-03
   8    9.997       8.887       7.776       6.666       5.555       4.445       3.335       2.224       1.114      3.3313E-03
   9    9.997       8.887       7.776       6.666       5.555       4.445       3.335       2.224       1.114      3.3313E-03
  10    9.997       8.887       7.776       6.666       5.555       4.445       3.335       2.224       1.114      3.3313E-03
1
              HEAD IN LAYER   2 AT END OF TIME STEP  91 IN STRESS PERIOD    2
  ---------------------------------------------------------------------------

            1           2           3           4           5           6           7           8           9          10
 ........................................................................................................................
   1    9.997       8.887       7.776       6.666       5.555       4.445       3.335       2.224       1.114      3.3313E-03
   2    9.997       8.887       7.776       6.666       5.555       4.445       3.335       2.224       1.114      3.3313E-03
   3    9.997       8.887       7.776       6.666       5.555       4.445       3.335       2.224       1.114      3.3313E-03
   4    9.997       8.887       7.776       6.666       5.555       4.445       3.335       2.224       1.114      3.3313E-03
   5    9.997       8.887       7.776       6.666       5.555       4.445       3.335       2.224       1.114      3.3313E-03
   6    9.997       8.887       7.776       6.666       5.555       4.445       3.335       2.224       1.114      3.3313E-03
   7    9.997       8.887       7.776       6.666       5.555       4.445       3.335       2.224       1.114      3.3313E-03
   8    9.997       8.887       7.776       6.666       5.555       4.445       3.335       2.224       1.114      3.3313E-03
   9    9.997       8.887       7.776       6.666       5.555       4.445       3.335       2.224       1.114      3.3313E-03
  10    9.997       8.887       7.776       6.666       5.555       4.445       3.335       2.224       1.114      3.3313E-03
1
              HEAD IN LAYER   3 AT END OF TIME STEP  91 IN STRESS PERIOD    2
  ---------------------------------------------------------------------------

            1           2           3           4           5           6           7           8           9          10
 ........................................................................................................................
   1    9.997       8.887       7.776       6.666       5.555       4.445       3.335       2.224       1.114      3.3313E-03
   2    9.997       8.887       7.776       6.666       5.555       4.445       3.335       2.224       1.114      3.3313E-03
   3    9.997       8.887       7.776       6.666       5.555       4.445       3.335       2.224       1.114      3.3313E-03
   4    9.997       8.887       7.776       6.666       5.555       4.445       3.335       2.224       1.114      3.3313E-03
   5    9.997       8.887       7.776       6.666       5.555       4.445       3.335       2.224       1.114      3.3313E-03
   6    9.997       8.887       7.776       6.666       5.555       4.445       3.335       2.224       1.114      3.3313E-03
   7    9.997       8.887       7.776       6.666       5.555       4.445       3.335       2.224       1.114      3.3313E-03
   8    9.997       8.887       7.776       6.666       5.555       4.445       3.335       2.224       1.114      3.3313E-03
   9    9.997       8.887       7.776       6.666       5.555       4.445       3.335       2.224       1.114      3.3313E-03
  10    9.997       8.887       7.776       6.666       5.555       4.445       3.335       2.224       1.114      3.3313E-03
1
              HEAD IN LAYER   4 AT END OF TIME STEP  91 IN STRESS PERIOD    2
  ---------------------------------------------------------------------------

            1           2           3           4           5           6           7           8           9          10
 ........................................................................................................................
   1    9.997       8.887       7.776       6.666       5.555       4.445       3.335       2.224       1.114      3.3313E-03
   2    9.997       8.887       7.776       6.666       5.555       4.445       3.335       2.224       1.114      3.3313E-03
   3    9.997       8.887       7.776       6.666       5.555       4.445       3.335       2.224       1.114      3.3313E-03
   4    9.997       8.887       7.776       6.666       5.555       4.445       3.335       2.224       1.114      3.3313E-03
   5    9.997       8.887       7.776       6.666       5.555       4.445       3.335       2.224       1.114      3.3313E-03
   6    9.997       8.887       7.776       6.666       5.555       4.445       3.335       2.224       1.114      3.3313E-03
   7    9.997       8.887       7.776       6.666       5.555       4.445       3.335       2.224       1.114      3.3313E-03
   8    9.997       8.887       7.776       6.666       5.555       4.445       3.335       2.224       1.114      3.3313E-03
   9    9.997       8.887       7.776       6.666       5.555       4.445       3.335       2.224       1.114      3.3313E-03
  10    9.997       8.887       7.776       6.666       5.555       4.445       3.335       2.224       1.114      3.3313E-03

 HEAD WILL BE SAVED ON UNIT   51 AT END OF TIME STEP   91, STRESS PERIOD    2

 DRAWDOWN WILL BE SAVED ON UNIT   52 AT END OF TIME STEP   91, STRESS PERIOD    2
1
  VOLUMETRIC BUDGET FOR ENTIRE MODEL AT END OF TIME STEP   91, STRESS PERIOD   2
  ------------------------------------------------------------------------------

     CUMULATIVE VOLUMES      L**3       RATES FOR THIS TIME STEP      L**3/T
     ------------------                 ------------------------

           IN:                                      IN:
           ---                                      ---
             STORAGE =       1.0477E-08               STORAGE =           0.0000
       CONSTANT HEAD =           0.0000         CONSTANT HEAD =           0.0000
               WELLS =           0.0000                 WELLS =           0.0000
     HEAD DEP BOUNDS =       61300.6953       HEAD DEP BOUNDS =         666.3123

            TOTAL IN =       61300.6953              TOTAL IN =         666.3123

          OUT:                                     OUT:
          ----                                     ----
             STORAGE =       5.2387E-08               STORAGE =           0.0000
       CONSTANT HEAD =           0.0000         CONSTANT HEAD =           0.0000
               WELLS =           0.0000                 WELLS =           0.0000
     HEAD DEP BOUNDS =       61295.8125       HEAD DEP BOUNDS =         666.2595

           TOTAL OUT =       61295.8125             TOTAL OUT =         666.2595

            IN - OUT =           4.8828              IN - OUT =       5.2795E-02

 PERCENT DISCREPANCY =           0.01     PERCENT DISCREPANCY =           0.01






         TIME SUMMARY AT END OF TIME STEP   91 IN STRESS PERIOD    2
                    SECONDS     MINUTES      HOURS       DAYS        YEARS
                    -----------------------------------------------------------
   TIME STEP LENGTH  86400.      1440.0      24.000      1.0000     2.73785E-03
 STRESS PERIOD TIME 7.86240E+06 1.31040E+05  2184.0      91.000     0.24914    
         TOTAL TIME 7.94880E+06 1.32480E+05  2208.0      92.000     0.25188    
1
 
 SOLVING FOR HEAD 

 OUTPUT CONTROL FOR STRESS PERIOD    2   TIME STEP   92
    SAVE HEAD FOR ALL LAYERS
    SAVE DRAWDOWN FOR ALL LAYERS
    SAVE BUDGET
    PRINT HEAD FOR ALL LAYERS
    PRINT BUDGET
 UBDSV1 SAVING "         STORAGE" ON UNIT  53 AT TIME STEP 92, STRESS PERIOD   2
 UBDSV2 SAVING "   CONSTANT HEAD" ON UNIT  53 AT TIME STEP 92, STRESS PERIOD   2
 UBDSV1 SAVING "FLOW RIGHT FACE " ON UNIT  53 AT TIME STEP 92, STRESS PERIOD   2
 UBDSV1 SAVING "FLOW FRONT FACE " ON UNIT  53 AT TIME STEP 92, STRESS PERIOD   2
 UBDSV1 SAVING "FLOW LOWER FACE " ON UNIT  53 AT TIME STEP 92, STRESS PERIOD   2
1
              HEAD IN LAYER   1 AT END OF TIME STEP  92 IN STRESS PERIOD    2
  ---------------------------------------------------------------------------

            1           2           3           4           5           6           7           8           9          10
 ........................................................................................................................
   1    9.997       8.887       7.776       6.666       5.555       4.445       3.335       2.224       1.114      3.3313E-03
   2    9.997       8.887       7.776       6.666       5.555       4.445       3.335       2.224       1.114      3.3313E-03
   3    9.997       8.887       7.776       6.666       5.555       4.445       3.335       2.224       1.114      3.3313E-03
   4    9.997       8.887       7.776       6.666       5.555       4.445       3.335       2.224       1.114      3.3313E-03
   5    9.997       8.887       7.776       6.666       5.555       4.445       3.335       2.224       1.114      3.3313E-03
   6    9.997       8.887       7.776       6.666       5.555       4.445       3.335       2.224       1.114      3.3313E-03
   7    9.997       8.887       7.776       6.666       5.555       4.445       3.335       2.224       1.114      3.3313E-03
   8    9.997       8.887       7.776       6.666       5.555       4.445       3.335       2.224       1.114      3.3313E-03
   9    9.997       8.887       7.776       6.666       5.555       4.445       3.335       2.224       1.114      3.3313E-03
  10    9.997       8.887       7.776       6.666       5.555       4.445       3.335       2.224       1.114      3.3313E-03
1
              HEAD IN LAYER   2 AT END OF TIME STEP  92 IN STRESS PERIOD    2
  ---------------------------------------------------------------------------

            1           2           3           4           5           6           7           8           9          10
 ........................................................................................................................
   1    9.997       8.887       7.776       6.666       5.555       4.445       3.335       2.224       1.114      3.3313E-03
   2    9.997       8.887       7.776       6.666       5.555       4.445       3.335       2.224       1.114      3.3313E-03
   3    9.997       8.887       7.776       6.666       5.555       4.445       3.335       2.224       1.114      3.3313E-03
   4    9.997       8.887       7.776       6.666       5.555       4.445       3.335       2.224       1.114      3.3313E-03
   5    9.997       8.887       7.776       6.666       5.555       4.445       3.335       2.224       1.114      3.3313E-03
   6    9.997       8.887       7.776       6.666       5.555       4.445       3.335       2.224       1.114      3.3313E-03
   7    9.997       8.887       7.776       6.666       5.555       4.445       3.335       2.224       1.114      3.3313E-03
   8    9.997       8.887       7.776       6.666       5.555       4.445       3.335       2.224       1.114      3.3313E-03
   9    9.997       8.887       7.776       6.666       5.555       4.445       3.335       2.224       1.114      3.3313E-03
  10    9.997       8.887       7.776       6.666       5.555       4.445       3.335       2.224       1.114      3.3313E-03
1
              HEAD IN LAYER   3 AT END OF TIME STEP  92 IN STRESS PERIOD    2
  ---------------------------------------------------------------------------

            1           2           3           4           5           6           7           8           9          10
 ........................................................................................................................
   1    9.997       8.887       7.776       6.666       5.555       4.445       3.335       2.224       1.114      3.3313E-03
   2    9.997       8.887       7.776       6.666       5.555       4.445       3.335       2.224       1.114      3.3313E-03
   3    9.997       8.887       7.776       6.666       5.555       4.445       3.335       2.224       1.114      3.3313E-03
   4    9.997       8.887       7.776       6.666       5.555       4.445       3.335       2.224       1.114      3.3313E-03
   5    9.997       8.887       7.776       6.666       5.555       4.445       3.335       2.224       1.114      3.3313E-03
   6    9.997       8.887       7.776       6.666       5.555       4.445       3.335       2.224       1.114      3.3313E-03
   7    9.997       8.887       7.776       6.666       5.555       4.445       3.335       2.224       1.114      3.3313E-03
   8    9.997       8.887       7.776       6.666       5.555       4.445       3.335       2.224       1.114      3.3313E-03
   9    9.997       8.887       7.776       6.666       5.555       4.445       3.335       2.224       1.114      3.3313E-03
  10    9.997       8.887       7.776       6.666       5.555       4.445       3.335       2.224       1.114      3.3313E-03
1
              HEAD IN LAYER   4 AT END OF TIME STEP  92 IN STRESS PERIOD    2
  ---------------------------------------------------------------------------

            1           2           3           4           5           6           7           8           9          10
 ........................................................................................................................
   1    9.997       8.887       7.776       6.666       5.555       4.445       3.335       2.224       1.114      3.3313E-03
   2    9.997       8.887       7.776       6.666       5.555       4.445       3.335       2.224       1.114      3.3313E-03
   3    9.997       8.887       7.776       6.666       5.555       4.445       3.335       2.224       1.114      3.3313E-03
   4    9.997       8.887       7.776       6.666       5.555       4.445       3.335       2.224       1.114      3.3313E-03
   5    9.997       8.887       7.776       6.666       5.555       4.445       3.335       2.224       1.114      3.3313E-03
   6    9.997       8.887       7.776       6.666       5.555       4.445       3.335       2.224       1.114      3.3313E-03
   7    9.997       8.887       7.776       6.666       5.555       4.445       3.335       2.224       1.114      3.3313E-03
   8    9.997       8.887       7.776       6.666       5.555       4.445       3.335       2.224       1.114      3.3313E-03
   9    9.997       8.887       7.776       6.666       5.555       4.445       3.335       2.224       1.114      3.3313E-03
  10    9.997       8.887       7.776       6.666       5.555       4.445       3.335       2.224       1.114      3.3313E-03

 HEAD WILL BE SAVED ON UNIT   51 AT END OF TIME STEP   92, STRESS PERIOD    2

 DRAWDOWN WILL BE SAVED ON UNIT   52 AT END OF TIME STEP   92, STRESS PERIOD    2
1
  VOLUMETRIC BUDGET FOR ENTIRE MODEL AT END OF TIME STEP   92, STRESS PERIOD   2
  ------------------------------------------------------------------------------

     CUMULATIVE VOLUMES      L**3       RATES FOR THIS TIME STEP      L**3/T
     ------------------                 ------------------------

           IN:                                      IN:
           ---                                      ---
             STORAGE =       1.0477E-08               STORAGE =           0.0000
       CONSTANT HEAD =           0.0000         CONSTANT HEAD =           0.0000
               WELLS =           0.0000                 WELLS =           0.0000
     HEAD DEP BOUNDS =       61967.0078       HEAD DEP BOUNDS =         666.3123

            TOTAL IN =       61967.0078              TOTAL IN =         666.3123

          OUT:                                     OUT:
          ----                                     ----
             STORAGE =       5.2387E-08               STORAGE =           0.0000
       CONSTANT HEAD =           0.0000         CONSTANT HEAD =           0.0000
               WELLS =           0.0000                 WELLS =           0.0000
     HEAD DEP BOUNDS =       61962.0703       HEAD DEP BOUNDS =         666.2595

           TOTAL OUT =       61962.0703             TOTAL OUT =         666.2595

            IN - OUT =           4.9375              IN - OUT =       5.2795E-02

 PERCENT DISCREPANCY =           0.01     PERCENT DISCREPANCY =           0.01






         TIME SUMMARY AT END OF TIME STEP   92 IN STRESS PERIOD    2
                    SECONDS     MINUTES      HOURS       DAYS        YEARS
                    -----------------------------------------------------------
   TIME STEP LENGTH  86400.      1440.0      24.000      1.0000     2.73785E-03
 STRESS PERIOD TIME 7.94880E+06 1.32480E+05  2208.0      92.000     0.25188    
         TOTAL TIME 8.03520E+06 1.33920E+05  2232.0      93.000     0.25462    
1
 
 SOLVING FOR HEAD 

 OUTPUT CONTROL FOR STRESS PERIOD    2   TIME STEP   93
    SAVE HEAD FOR ALL LAYERS
    SAVE DRAWDOWN FOR ALL LAYERS
    SAVE BUDGET
    PRINT HEAD FOR ALL LAYERS
    PRINT BUDGET
 UBDSV1 SAVING "         STORAGE" ON UNIT  53 AT TIME STEP 93, STRESS PERIOD   2
 UBDSV2 SAVING "   CONSTANT HEAD" ON UNIT  53 AT TIME STEP 93, STRESS PERIOD   2
 UBDSV1 SAVING "FLOW RIGHT FACE " ON UNIT  53 AT TIME STEP 93, STRESS PERIOD   2
 UBDSV1 SAVING "FLOW FRONT FACE " ON UNIT  53 AT TIME STEP 93, STRESS PERIOD   2
 UBDSV1 SAVING "FLOW LOWER FACE " ON UNIT  53 AT TIME STEP 93, STRESS PERIOD   2
1
              HEAD IN LAYER   1 AT END OF TIME STEP  93 IN STRESS PERIOD    2
  ---------------------------------------------------------------------------

            1           2           3           4           5           6           7           8           9          10
 ........................................................................................................................
   1    9.997       8.887       7.776       6.666       5.555       4.445       3.335       2.224       1.114      3.3313E-03
   2    9.997       8.887       7.776       6.666       5.555       4.445       3.335       2.224       1.114      3.3313E-03
   3    9.997       8.887       7.776       6.666       5.555       4.445       3.335       2.224       1.114      3.3313E-03
   4    9.997       8.887       7.776       6.666       5.555       4.445       3.335       2.224       1.114      3.3313E-03
   5    9.997       8.887       7.776       6.666       5.555       4.445       3.335       2.224       1.114      3.3313E-03
   6    9.997       8.887       7.776       6.666       5.555       4.445       3.335       2.224       1.114      3.3313E-03
   7    9.997       8.887       7.776       6.666       5.555       4.445       3.335       2.224       1.114      3.3313E-03
   8    9.997       8.887       7.776       6.666       5.555       4.445       3.335       2.224       1.114      3.3313E-03
   9    9.997       8.887       7.776       6.666       5.555       4.445       3.335       2.224       1.114      3.3313E-03
  10    9.997       8.887       7.776       6.666       5.555       4.445       3.335       2.224       1.114      3.3313E-03
1
              HEAD IN LAYER   2 AT END OF TIME STEP  93 IN STRESS PERIOD    2
  ---------------------------------------------------------------------------

            1           2           3           4           5           6           7           8           9          10
 ........................................................................................................................
   1    9.997       8.887       7.776       6.666       5.555       4.445       3.335       2.224       1.114      3.3313E-03
   2    9.997       8.887       7.776       6.666       5.555       4.445       3.335       2.224       1.114      3.3313E-03
   3    9.997       8.887       7.776       6.666       5.555       4.445       3.335       2.224       1.114      3.3313E-03
   4    9.997       8.887       7.776       6.666       5.555       4.445       3.335       2.224       1.114      3.3313E-03
   5    9.997       8.887       7.776       6.666       5.555       4.445       3.335       2.224       1.114      3.3313E-03
   6    9.997       8.887       7.776       6.666       5.555       4.445       3.335       2.224       1.114      3.3313E-03
   7    9.997       8.887       7.776       6.666       5.555       4.445       3.335       2.224       1.114      3.3313E-03
   8    9.997       8.887       7.776       6.666       5.555       4.445       3.335       2.224       1.114      3.3313E-03
   9    9.997       8.887       7.776       6.666       5.555       4.445       3.335       2.224       1.114      3.3313E-03
  10    9.997       8.887       7.776       6.666       5.555       4.445       3.335       2.224       1.114      3.3313E-03
1
              HEAD IN LAYER   3 AT END OF TIME STEP  93 IN STRESS PERIOD    2
  ---------------------------------------------------------------------------

            1           2           3           4           5           6           7           8           9          10
 ........................................................................................................................
   1    9.997       8.887       7.776       6.666       5.555       4.445       3.335       2.224       1.114      3.3313E-03
   2    9.997       8.887       7.776       6.666       5.555       4.445       3.335       2.224       1.114      3.3313E-03
   3    9.997       8.887       7.776       6.666       5.555       4.445       3.335       2.224       1.114      3.3313E-03
   4    9.997       8.887       7.776       6.666       5.555       4.445       3.335       2.224       1.114      3.3313E-03
   5    9.997       8.887       7.776       6.666       5.555       4.445       3.335       2.224       1.114      3.3313E-03
   6    9.997       8.887       7.776       6.666       5.555       4.445       3.335       2.224       1.114      3.3313E-03
   7    9.997       8.887       7.776       6.666       5.555       4.445       3.335       2.224       1.114      3.3313E-03
   8    9.997       8.887       7.776       6.666       5.555       4.445       3.335       2.224       1.114      3.3313E-03
   9    9.997       8.887       7.776       6.666       5.555       4.445       3.335       2.224       1.114      3.3313E-03
  10    9.997       8.887       7.776       6.666       5.555       4.445       3.335       2.224       1.114      3.3313E-03
1
              HEAD IN LAYER   4 AT END OF TIME STEP  93 IN STRESS PERIOD    2
  ---------------------------------------------------------------------------

            1           2           3           4           5           6           7           8           9          10
 ........................................................................................................................
   1    9.997       8.887       7.776       6.666       5.555       4.445       3.335       2.224       1.114      3.3313E-03
   2    9.997       8.887       7.776       6.666       5.555       4.445       3.335       2.224       1.114      3.3313E-03
   3    9.997       8.887       7.776       6.666       5.555       4.445       3.335       2.224       1.114      3.3313E-03
   4    9.997       8.887       7.776       6.666       5.555       4.445       3.335       2.224       1.114      3.3313E-03
   5    9.997       8.887       7.776       6.666       5.555       4.445       3.335       2.224       1.114      3.3313E-03
   6    9.997       8.887       7.776       6.666       5.555       4.445       3.335       2.224       1.114      3.3313E-03
   7    9.997       8.887       7.776       6.666       5.555       4.445       3.335       2.224       1.114      3.3313E-03
   8    9.997       8.887       7.776       6.666       5.555       4.445       3.335       2.224       1.114      3.3313E-03
   9    9.997       8.887       7.776       6.666       5.555       4.445       3.335       2.224       1.114      3.3313E-03
  10    9.997       8.887       7.776       6.666       5.555       4.445       3.335       2.224       1.114      3.3313E-03

 HEAD WILL BE SAVED ON UNIT   51 AT END OF TIME STEP   93, STRESS PERIOD    2

 DRAWDOWN WILL BE SAVED ON UNIT   52 AT END OF TIME STEP   93, STRESS PERIOD    2
1
  VOLUMETRIC BUDGET FOR ENTIRE MODEL AT END OF TIME STEP   93, STRESS PERIOD   2
  ------------------------------------------------------------------------------

     CUMULATIVE VOLUMES      L**3       RATES FOR THIS TIME STEP      L**3/T
     ------------------                 ------------------------

           IN:                                      IN:
           ---                                      ---
             STORAGE =       1.0477E-08               STORAGE =           0.0000
       CONSTANT HEAD =           0.0000         CONSTANT HEAD =           0.0000
               WELLS =           0.0000                 WELLS =           0.0000
     HEAD DEP BOUNDS =       62633.3203       HEAD DEP BOUNDS =         666.3123

            TOTAL IN =       62633.3203              TOTAL IN =         666.3123

          OUT:                                     OUT:
          ----                                     ----
             STORAGE =       5.2387E-08               STORAGE =           0.0000
       CONSTANT HEAD =           0.0000         CONSTANT HEAD =           0.0000
               WELLS =           0.0000                 WELLS =           0.0000
     HEAD DEP BOUNDS =       62628.3281       HEAD DEP BOUNDS =         666.2595

           TOTAL OUT =       62628.3281             TOTAL OUT =         666.2595

            IN - OUT =           4.9922              IN - OUT =       5.2795E-02

 PERCENT DISCREPANCY =           0.01     PERCENT DISCREPANCY =           0.01






         TIME SUMMARY AT END OF TIME STEP   93 IN STRESS PERIOD    2
                    SECONDS     MINUTES      HOURS       DAYS        YEARS
                    -----------------------------------------------------------
   TIME STEP LENGTH  86400.      1440.0      24.000      1.0000     2.73785E-03
 STRESS PERIOD TIME 8.03520E+06 1.33920E+05  2232.0      93.000     0.25462    
         TOTAL TIME 8.12160E+06 1.35360E+05  2256.0      94.000     0.25736    
1
 
 SOLVING FOR HEAD 

 OUTPUT CONTROL FOR STRESS PERIOD    2   TIME STEP   94
    SAVE HEAD FOR ALL LAYERS
    SAVE DRAWDOWN FOR ALL LAYERS
    SAVE BUDGET
    PRINT HEAD FOR ALL LAYERS
    PRINT BUDGET
 UBDSV1 SAVING "         STORAGE" ON UNIT  53 AT TIME STEP 94, STRESS PERIOD   2
 UBDSV2 SAVING "   CONSTANT HEAD" ON UNIT  53 AT TIME STEP 94, STRESS PERIOD   2
 UBDSV1 SAVING "FLOW RIGHT FACE " ON UNIT  53 AT TIME STEP 94, STRESS PERIOD   2
 UBDSV1 SAVING "FLOW FRONT FACE " ON UNIT  53 AT TIME STEP 94, STRESS PERIOD   2
 UBDSV1 SAVING "FLOW LOWER FACE " ON UNIT  53 AT TIME STEP 94, STRESS PERIOD   2
1
              HEAD IN LAYER   1 AT END OF TIME STEP  94 IN STRESS PERIOD    2
  ---------------------------------------------------------------------------

            1           2           3           4           5           6           7           8           9          10
 ........................................................................................................................
   1    9.997       8.887       7.776       6.666       5.555       4.445       3.335       2.224       1.114      3.3313E-03
   2    9.997       8.887       7.776       6.666       5.555       4.445       3.335       2.224       1.114      3.3313E-03
   3    9.997       8.887       7.776       6.666       5.555       4.445       3.335       2.224       1.114      3.3313E-03
   4    9.997       8.887       7.776       6.666       5.555       4.445       3.335       2.224       1.114      3.3313E-03
   5    9.997       8.887       7.776       6.666       5.555       4.445       3.335       2.224       1.114      3.3313E-03
   6    9.997       8.887       7.776       6.666       5.555       4.445       3.335       2.224       1.114      3.3313E-03
   7    9.997       8.887       7.776       6.666       5.555       4.445       3.335       2.224       1.114      3.3313E-03
   8    9.997       8.887       7.776       6.666       5.555       4.445       3.335       2.224       1.114      3.3313E-03
   9    9.997       8.887       7.776       6.666       5.555       4.445       3.335       2.224       1.114      3.3313E-03
  10    9.997       8.887       7.776       6.666       5.555       4.445       3.335       2.224       1.114      3.3313E-03
1
              HEAD IN LAYER   2 AT END OF TIME STEP  94 IN STRESS PERIOD    2
  ---------------------------------------------------------------------------

            1           2           3           4           5           6           7           8           9          10
 ........................................................................................................................
   1    9.997       8.887       7.776       6.666       5.555       4.445       3.335       2.224       1.114      3.3313E-03
   2    9.997       8.887       7.776       6.666       5.555       4.445       3.335       2.224       1.114      3.3313E-03
   3    9.997       8.887       7.776       6.666       5.555       4.445       3.335       2.224       1.114      3.3313E-03
   4    9.997       8.887       7.776       6.666       5.555       4.445       3.335       2.224       1.114      3.3313E-03
   5    9.997       8.887       7.776       6.666       5.555       4.445       3.335       2.224       1.114      3.3313E-03
   6    9.997       8.887       7.776       6.666       5.555       4.445       3.335       2.224       1.114      3.3313E-03
   7    9.997       8.887       7.776       6.666       5.555       4.445       3.335       2.224       1.114      3.3313E-03
   8    9.997       8.887       7.776       6.666       5.555       4.445       3.335       2.224       1.114      3.3313E-03
   9    9.997       8.887       7.776       6.666       5.555       4.445       3.335       2.224       1.114      3.3313E-03
  10    9.997       8.887       7.776       6.666       5.555       4.445       3.335       2.224       1.114      3.3313E-03
1
              HEAD IN LAYER   3 AT END OF TIME STEP  94 IN STRESS PERIOD    2
  ---------------------------------------------------------------------------

            1           2           3           4           5           6           7           8           9          10
 ........................................................................................................................
   1    9.997       8.887       7.776       6.666       5.555       4.445       3.335       2.224       1.114      3.3313E-03
   2    9.997       8.887       7.776       6.666       5.555       4.445       3.335       2.224       1.114      3.3313E-03
   3    9.997       8.887       7.776       6.666       5.555       4.445       3.335       2.224       1.114      3.3313E-03
   4    9.997       8.887       7.776       6.666       5.555       4.445       3.335       2.224       1.114      3.3313E-03
   5    9.997       8.887       7.776       6.666       5.555       4.445       3.335       2.224       1.114      3.3313E-03
   6    9.997       8.887       7.776       6.666       5.555       4.445       3.335       2.224       1.114      3.3313E-03
   7    9.997       8.887       7.776       6.666       5.555       4.445       3.335       2.224       1.114      3.3313E-03
   8    9.997       8.887       7.776       6.666       5.555       4.445       3.335       2.224       1.114      3.3313E-03
   9    9.997       8.887       7.776       6.666       5.555       4.445       3.335       2.224       1.114      3.3313E-03
  10    9.997       8.887       7.776       6.666       5.555       4.445       3.335       2.224       1.114      3.3313E-03
1
              HEAD IN LAYER   4 AT END OF TIME STEP  94 IN STRESS PERIOD    2
  ---------------------------------------------------------------------------

            1           2           3           4           5           6           7           8           9          10
 ........................................................................................................................
   1    9.997       8.887       7.776       6.666       5.555       4.445       3.335       2.224       1.114      3.3313E-03
   2    9.997       8.887       7.776       6.666       5.555       4.445       3.335       2.224       1.114      3.3313E-03
   3    9.997       8.887       7.776       6.666       5.555       4.445       3.335       2.224       1.114      3.3313E-03
   4    9.997       8.887       7.776       6.666       5.555       4.445       3.335       2.224       1.114      3.3313E-03
   5    9.997       8.887       7.776       6.666       5.555       4.445       3.335       2.224       1.114      3.3313E-03
   6    9.997       8.887       7.776       6.666       5.555       4.445       3.335       2.224       1.114      3.3313E-03
   7    9.997       8.887       7.776       6.666       5.555       4.445       3.335       2.224       1.114      3.3313E-03
   8    9.997       8.887       7.776       6.666       5.555       4.445       3.335       2.224       1.114      3.3313E-03
   9    9.997       8.887       7.776       6.666       5.555       4.445       3.335       2.224       1.114      3.3313E-03
  10    9.997       8.887       7.776       6.666       5.555       4.445       3.335       2.224       1.114      3.3313E-03

 HEAD WILL BE SAVED ON UNIT   51 AT END OF TIME STEP   94, STRESS PERIOD    2

 DRAWDOWN WILL BE SAVED ON UNIT   52 AT END OF TIME STEP   94, STRESS PERIOD    2
1
  VOLUMETRIC BUDGET FOR ENTIRE MODEL AT END OF TIME STEP   94, STRESS PERIOD   2
  ------------------------------------------------------------------------------

     CUMULATIVE VOLUMES      L**3       RATES FOR THIS TIME STEP      L**3/T
     ------------------                 ------------------------

           IN:                                      IN:
           ---                                      ---
             STORAGE =       1.0477E-08               STORAGE =           0.0000
       CONSTANT HEAD =           0.0000         CONSTANT HEAD =           0.0000
               WELLS =           0.0000                 WELLS =           0.0000
     HEAD DEP BOUNDS =       63299.6328       HEAD DEP BOUNDS =         666.3123

            TOTAL IN =       63299.6328              TOTAL IN =         666.3123

          OUT:                                     OUT:
          ----                                     ----
             STORAGE =       5.2387E-08               STORAGE =           0.0000
       CONSTANT HEAD =           0.0000         CONSTANT HEAD =           0.0000
               WELLS =           0.0000                 WELLS =           0.0000
     HEAD DEP BOUNDS =       63294.5859       HEAD DEP BOUNDS =         666.2595

           TOTAL OUT =       63294.5859             TOTAL OUT =         666.2595

            IN - OUT =           5.0469              IN - OUT =       5.2795E-02

 PERCENT DISCREPANCY =           0.01     PERCENT DISCREPANCY =           0.01






         TIME SUMMARY AT END OF TIME STEP   94 IN STRESS PERIOD    2
                    SECONDS     MINUTES      HOURS       DAYS        YEARS
                    -----------------------------------------------------------
   TIME STEP LENGTH  86400.      1440.0      24.000      1.0000     2.73785E-03
 STRESS PERIOD TIME 8.12160E+06 1.35360E+05  2256.0      94.000     0.25736    
         TOTAL TIME 8.20800E+06 1.36800E+05  2280.0      95.000     0.26010    
1
 
 SOLVING FOR HEAD 

 OUTPUT CONTROL FOR STRESS PERIOD    2   TIME STEP   95
    SAVE HEAD FOR ALL LAYERS
    SAVE DRAWDOWN FOR ALL LAYERS
    SAVE BUDGET
    PRINT HEAD FOR ALL LAYERS
    PRINT BUDGET
 UBDSV1 SAVING "         STORAGE" ON UNIT  53 AT TIME STEP 95, STRESS PERIOD   2
 UBDSV2 SAVING "   CONSTANT HEAD" ON UNIT  53 AT TIME STEP 95, STRESS PERIOD   2
 UBDSV1 SAVING "FLOW RIGHT FACE " ON UNIT  53 AT TIME STEP 95, STRESS PERIOD   2
 UBDSV1 SAVING "FLOW FRONT FACE " ON UNIT  53 AT TIME STEP 95, STRESS PERIOD   2
 UBDSV1 SAVING "FLOW LOWER FACE " ON UNIT  53 AT TIME STEP 95, STRESS PERIOD   2
1
              HEAD IN LAYER   1 AT END OF TIME STEP  95 IN STRESS PERIOD    2
  ---------------------------------------------------------------------------

            1           2           3           4           5           6           7           8           9          10
 ........................................................................................................................
   1    9.997       8.887       7.776       6.666       5.555       4.445       3.335       2.224       1.114      3.3313E-03
   2    9.997       8.887       7.776       6.666       5.555       4.445       3.335       2.224       1.114      3.3313E-03
   3    9.997       8.887       7.776       6.666       5.555       4.445       3.335       2.224       1.114      3.3313E-03
   4    9.997       8.887       7.776       6.666       5.555       4.445       3.335       2.224       1.114      3.3313E-03
   5    9.997       8.887       7.776       6.666       5.555       4.445       3.335       2.224       1.114      3.3313E-03
   6    9.997       8.887       7.776       6.666       5.555       4.445       3.335       2.224       1.114      3.3313E-03
   7    9.997       8.887       7.776       6.666       5.555       4.445       3.335       2.224       1.114      3.3313E-03
   8    9.997       8.887       7.776       6.666       5.555       4.445       3.335       2.224       1.114      3.3313E-03
   9    9.997       8.887       7.776       6.666       5.555       4.445       3.335       2.224       1.114      3.3313E-03
  10    9.997       8.887       7.776       6.666       5.555       4.445       3.335       2.224       1.114      3.3313E-03
1
              HEAD IN LAYER   2 AT END OF TIME STEP  95 IN STRESS PERIOD    2
  ---------------------------------------------------------------------------

            1           2           3           4           5           6           7           8           9          10
 ........................................................................................................................
   1    9.997       8.887       7.776       6.666       5.555       4.445       3.335       2.224       1.114      3.3313E-03
   2    9.997       8.887       7.776       6.666       5.555       4.445       3.335       2.224       1.114      3.3313E-03
   3    9.997       8.887       7.776       6.666       5.555       4.445       3.335       2.224       1.114      3.3313E-03
   4    9.997       8.887       7.776       6.666       5.555       4.445       3.335       2.224       1.114      3.3313E-03
   5    9.997       8.887       7.776       6.666       5.555       4.445       3.335       2.224       1.114      3.3313E-03
   6    9.997       8.887       7.776       6.666       5.555       4.445       3.335       2.224       1.114      3.3313E-03
   7    9.997       8.887       7.776       6.666       5.555       4.445       3.335       2.224       1.114      3.3313E-03
   8    9.997       8.887       7.776       6.666       5.555       4.445       3.335       2.224       1.114      3.3313E-03
   9    9.997       8.887       7.776       6.666       5.555       4.445       3.335       2.224       1.114      3.3313E-03
  10    9.997       8.887       7.776       6.666       5.555       4.445       3.335       2.224       1.114      3.3313E-03
1
              HEAD IN LAYER   3 AT END OF TIME STEP  95 IN STRESS PERIOD    2
  ---------------------------------------------------------------------------

            1           2           3           4           5           6           7           8           9          10
 ........................................................................................................................
   1    9.997       8.887       7.776       6.666       5.555       4.445       3.335       2.224       1.114      3.3313E-03
   2    9.997       8.887       7.776       6.666       5.555       4.445       3.335       2.224       1.114      3.3313E-03
   3    9.997       8.887       7.776       6.666       5.555       4.445       3.335       2.224       1.114      3.3313E-03
   4    9.997       8.887       7.776       6.666       5.555       4.445       3.335       2.224       1.114      3.3313E-03
   5    9.997       8.887       7.776       6.666       5.555       4.445       3.335       2.224       1.114      3.3313E-03
   6    9.997       8.887       7.776       6.666       5.555       4.445       3.335       2.224       1.114      3.3313E-03
   7    9.997       8.887       7.776       6.666       5.555       4.445       3.335       2.224       1.114      3.3313E-03
   8    9.997       8.887       7.776       6.666       5.555       4.445       3.335       2.224       1.114      3.3313E-03
   9    9.997       8.887       7.776       6.666       5.555       4.445       3.335       2.224       1.114      3.3313E-03
  10    9.997       8.887       7.776       6.666       5.555       4.445       3.335       2.224       1.114      3.3313E-03
1
              HEAD IN LAYER   4 AT END OF TIME STEP  95 IN STRESS PERIOD    2
  ---------------------------------------------------------------------------

            1           2           3           4           5           6           7           8           9          10
 ........................................................................................................................
   1    9.997       8.887       7.776       6.666       5.555       4.445       3.335       2.224       1.114      3.3313E-03
   2    9.997       8.887       7.776       6.666       5.555       4.445       3.335       2.224       1.114      3.3313E-03
   3    9.997       8.887       7.776       6.666       5.555       4.445       3.335       2.224       1.114      3.3313E-03
   4    9.997       8.887       7.776       6.666       5.555       4.445       3.335       2.224       1.114      3.3313E-03
   5    9.997       8.887       7.776       6.666       5.555       4.445       3.335       2.224       1.114      3.3313E-03
   6    9.997       8.887       7.776       6.666       5.555       4.445       3.335       2.224       1.114      3.3313E-03
   7    9.997       8.887       7.776       6.666       5.555       4.445       3.335       2.224       1.114      3.3313E-03
   8    9.997       8.887       7.776       6.666       5.555       4.445       3.335       2.224       1.114      3.3313E-03
   9    9.997       8.887       7.776       6.666       5.555       4.445       3.335       2.224       1.114      3.3313E-03
  10    9.997       8.887       7.776       6.666       5.555       4.445       3.335       2.224       1.114      3.3313E-03

 HEAD WILL BE SAVED ON UNIT   51 AT END OF TIME STEP   95, STRESS PERIOD    2

 DRAWDOWN WILL BE SAVED ON UNIT   52 AT END OF TIME STEP   95, STRESS PERIOD    2
1
  VOLUMETRIC BUDGET FOR ENTIRE MODEL AT END OF TIME STEP   95, STRESS PERIOD   2
  ------------------------------------------------------------------------------

     CUMULATIVE VOLUMES      L**3       RATES FOR THIS TIME STEP      L**3/T
     ------------------                 ------------------------

           IN:                                      IN:
           ---                                      ---
             STORAGE =       1.0477E-08               STORAGE =           0.0000
       CONSTANT HEAD =           0.0000         CONSTANT HEAD =           0.0000
               WELLS =           0.0000                 WELLS =           0.0000
     HEAD DEP BOUNDS =       63965.9453       HEAD DEP BOUNDS =         666.3123

            TOTAL IN =       63965.9453              TOTAL IN =         666.3123

          OUT:                                     OUT:
          ----                                     ----
             STORAGE =       5.2387E-08               STORAGE =           0.0000
       CONSTANT HEAD =           0.0000         CONSTANT HEAD =           0.0000
               WELLS =           0.0000                 WELLS =           0.0000
     HEAD DEP BOUNDS =       63960.8438       HEAD DEP BOUNDS =         666.2595

           TOTAL OUT =       63960.8438             TOTAL OUT =         666.2595

            IN - OUT =           5.1016              IN - OUT =       5.2795E-02

 PERCENT DISCREPANCY =           0.01     PERCENT DISCREPANCY =           0.01






         TIME SUMMARY AT END OF TIME STEP   95 IN STRESS PERIOD    2
                    SECONDS     MINUTES      HOURS       DAYS        YEARS
                    -----------------------------------------------------------
   TIME STEP LENGTH  86400.      1440.0      24.000      1.0000     2.73785E-03
 STRESS PERIOD TIME 8.20800E+06 1.36800E+05  2280.0      95.000     0.26010    
         TOTAL TIME 8.29440E+06 1.38240E+05  2304.0      96.000     0.26283    
1
 
 SOLVING FOR HEAD 

 OUTPUT CONTROL FOR STRESS PERIOD    2   TIME STEP   96
    SAVE HEAD FOR ALL LAYERS
    SAVE DRAWDOWN FOR ALL LAYERS
    SAVE BUDGET
    PRINT HEAD FOR ALL LAYERS
    PRINT BUDGET
 UBDSV1 SAVING "         STORAGE" ON UNIT  53 AT TIME STEP 96, STRESS PERIOD   2
 UBDSV2 SAVING "   CONSTANT HEAD" ON UNIT  53 AT TIME STEP 96, STRESS PERIOD   2
 UBDSV1 SAVING "FLOW RIGHT FACE " ON UNIT  53 AT TIME STEP 96, STRESS PERIOD   2
 UBDSV1 SAVING "FLOW FRONT FACE " ON UNIT  53 AT TIME STEP 96, STRESS PERIOD   2
 UBDSV1 SAVING "FLOW LOWER FACE " ON UNIT  53 AT TIME STEP 96, STRESS PERIOD   2
1
              HEAD IN LAYER   1 AT END OF TIME STEP  96 IN STRESS PERIOD    2
  ---------------------------------------------------------------------------

            1           2           3           4           5           6           7           8           9          10
 ........................................................................................................................
   1    9.997       8.887       7.776       6.666       5.555       4.445       3.335       2.224       1.114      3.3313E-03
   2    9.997       8.887       7.776       6.666       5.555       4.445       3.335       2.224       1.114      3.3313E-03
   3    9.997       8.887       7.776       6.666       5.555       4.445       3.335       2.224       1.114      3.3313E-03
   4    9.997       8.887       7.776       6.666       5.555       4.445       3.335       2.224       1.114      3.3313E-03
   5    9.997       8.887       7.776       6.666       5.555       4.445       3.335       2.224       1.114      3.3313E-03
   6    9.997       8.887       7.776       6.666       5.555       4.445       3.335       2.224       1.114      3.3313E-03
   7    9.997       8.887       7.776       6.666       5.555       4.445       3.335       2.224       1.114      3.3313E-03
   8    9.997       8.887       7.776       6.666       5.555       4.445       3.335       2.224       1.114      3.3313E-03
   9    9.997       8.887       7.776       6.666       5.555       4.445       3.335       2.224       1.114      3.3313E-03
  10    9.997       8.887       7.776       6.666       5.555       4.445       3.335       2.224       1.114      3.3313E-03
1
              HEAD IN LAYER   2 AT END OF TIME STEP  96 IN STRESS PERIOD    2
  ---------------------------------------------------------------------------

            1           2           3           4           5           6           7           8           9          10
 ........................................................................................................................
   1    9.997       8.887       7.776       6.666       5.555       4.445       3.335       2.224       1.114      3.3313E-03
   2    9.997       8.887       7.776       6.666       5.555       4.445       3.335       2.224       1.114      3.3313E-03
   3    9.997       8.887       7.776       6.666       5.555       4.445       3.335       2.224       1.114      3.3313E-03
   4    9.997       8.887       7.776       6.666       5.555       4.445       3.335       2.224       1.114      3.3313E-03
   5    9.997       8.887       7.776       6.666       5.555       4.445       3.335       2.224       1.114      3.3313E-03
   6    9.997       8.887       7.776       6.666       5.555       4.445       3.335       2.224       1.114      3.3313E-03
   7    9.997       8.887       7.776       6.666       5.555       4.445       3.335       2.224       1.114      3.3313E-03
   8    9.997       8.887       7.776       6.666       5.555       4.445       3.335       2.224       1.114      3.3313E-03
   9    9.997       8.887       7.776       6.666       5.555       4.445       3.335       2.224       1.114      3.3313E-03
  10    9.997       8.887       7.776       6.666       5.555       4.445       3.335       2.224       1.114      3.3313E-03
1
              HEAD IN LAYER   3 AT END OF TIME STEP  96 IN STRESS PERIOD    2
  ---------------------------------------------------------------------------

            1           2           3           4           5           6           7           8           9          10
 ........................................................................................................................
   1    9.997       8.887       7.776       6.666       5.555       4.445       3.335       2.224       1.114      3.3313E-03
   2    9.997       8.887       7.776       6.666       5.555       4.445       3.335       2.224       1.114      3.3313E-03
   3    9.997       8.887       7.776       6.666       5.555       4.445       3.335       2.224       1.114      3.3313E-03
   4    9.997       8.887       7.776       6.666       5.555       4.445       3.335       2.224       1.114      3.3313E-03
   5    9.997       8.887       7.776       6.666       5.555       4.445       3.335       2.224       1.114      3.3313E-03
   6    9.997       8.887       7.776       6.666       5.555       4.445       3.335       2.224       1.114      3.3313E-03
   7    9.997       8.887       7.776       6.666       5.555       4.445       3.335       2.224       1.114      3.3313E-03
   8    9.997       8.887       7.776       6.666       5.555       4.445       3.335       2.224       1.114      3.3313E-03
   9    9.997       8.887       7.776       6.666       5.555       4.445       3.335       2.224       1.114      3.3313E-03
  10    9.997       8.887       7.776       6.666       5.555       4.445       3.335       2.224       1.114      3.3313E-03
1
              HEAD IN LAYER   4 AT END OF TIME STEP  96 IN STRESS PERIOD    2
  ---------------------------------------------------------------------------

            1           2           3           4           5           6           7           8           9          10
 ........................................................................................................................
   1    9.997       8.887       7.776       6.666       5.555       4.445       3.335       2.224       1.114      3.3313E-03
   2    9.997       8.887       7.776       6.666       5.555       4.445       3.335       2.224       1.114      3.3313E-03
   3    9.997       8.887       7.776       6.666       5.555       4.445       3.335       2.224       1.114      3.3313E-03
   4    9.997       8.887       7.776       6.666       5.555       4.445       3.335       2.224       1.114      3.3313E-03
   5    9.997       8.887       7.776       6.666       5.555       4.445       3.335       2.224       1.114      3.3313E-03
   6    9.997       8.887       7.776       6.666       5.555       4.445       3.335       2.224       1.114      3.3313E-03
   7    9.997       8.887       7.776       6.666       5.555       4.445       3.335       2.224       1.114      3.3313E-03
   8    9.997       8.887       7.776       6.666       5.555       4.445       3.335       2.224       1.114      3.3313E-03
   9    9.997       8.887       7.776       6.666       5.555       4.445       3.335       2.224       1.114      3.3313E-03
  10    9.997       8.887       7.776       6.666       5.555       4.445       3.335       2.224       1.114      3.3313E-03

 HEAD WILL BE SAVED ON UNIT   51 AT END OF TIME STEP   96, STRESS PERIOD    2

 DRAWDOWN WILL BE SAVED ON UNIT   52 AT END OF TIME STEP   96, STRESS PERIOD    2
1
  VOLUMETRIC BUDGET FOR ENTIRE MODEL AT END OF TIME STEP   96, STRESS PERIOD   2
  ------------------------------------------------------------------------------

     CUMULATIVE VOLUMES      L**3       RATES FOR THIS TIME STEP      L**3/T
     ------------------                 ------------------------

           IN:                                      IN:
           ---                                      ---
             STORAGE =       1.0477E-08               STORAGE =           0.0000
       CONSTANT HEAD =           0.0000         CONSTANT HEAD =           0.0000
               WELLS =           0.0000                 WELLS =           0.0000
     HEAD DEP BOUNDS =       64632.2578       HEAD DEP BOUNDS =         666.3123

            TOTAL IN =       64632.2578              TOTAL IN =         666.3123

          OUT:                                     OUT:
          ----                                     ----
             STORAGE =       5.2387E-08               STORAGE =           0.0000
       CONSTANT HEAD =           0.0000         CONSTANT HEAD =           0.0000
               WELLS =           0.0000                 WELLS =           0.0000
     HEAD DEP BOUNDS =       64627.1016       HEAD DEP BOUNDS =         666.2595

           TOTAL OUT =       64627.1016             TOTAL OUT =         666.2595

            IN - OUT =           5.1562              IN - OUT =       5.2795E-02

 PERCENT DISCREPANCY =           0.01     PERCENT DISCREPANCY =           0.01






         TIME SUMMARY AT END OF TIME STEP   96 IN STRESS PERIOD    2
                    SECONDS     MINUTES      HOURS       DAYS        YEARS
                    -----------------------------------------------------------
   TIME STEP LENGTH  86400.      1440.0      24.000      1.0000     2.73785E-03
 STRESS PERIOD TIME 8.29440E+06 1.38240E+05  2304.0      96.000     0.26283    
         TOTAL TIME 8.38080E+06 1.39680E+05  2328.0      97.000     0.26557    
1
 
 SOLVING FOR HEAD 

 OUTPUT CONTROL FOR STRESS PERIOD    2   TIME STEP   97
    SAVE HEAD FOR ALL LAYERS
    SAVE DRAWDOWN FOR ALL LAYERS
    SAVE BUDGET
    PRINT HEAD FOR ALL LAYERS
    PRINT BUDGET
 UBDSV1 SAVING "         STORAGE" ON UNIT  53 AT TIME STEP 97, STRESS PERIOD   2
 UBDSV2 SAVING "   CONSTANT HEAD" ON UNIT  53 AT TIME STEP 97, STRESS PERIOD   2
 UBDSV1 SAVING "FLOW RIGHT FACE " ON UNIT  53 AT TIME STEP 97, STRESS PERIOD   2
 UBDSV1 SAVING "FLOW FRONT FACE " ON UNIT  53 AT TIME STEP 97, STRESS PERIOD   2
 UBDSV1 SAVING "FLOW LOWER FACE " ON UNIT  53 AT TIME STEP 97, STRESS PERIOD   2
1
              HEAD IN LAYER   1 AT END OF TIME STEP  97 IN STRESS PERIOD    2
  ---------------------------------------------------------------------------

            1           2           3           4           5           6           7           8           9          10
 ........................................................................................................................
   1    9.997       8.887       7.776       6.666       5.555       4.445       3.335       2.224       1.114      3.3313E-03
   2    9.997       8.887       7.776       6.666       5.555       4.445       3.335       2.224       1.114      3.3313E-03
   3    9.997       8.887       7.776       6.666       5.555       4.445       3.335       2.224       1.114      3.3313E-03
   4    9.997       8.887       7.776       6.666       5.555       4.445       3.335       2.224       1.114      3.3313E-03
   5    9.997       8.887       7.776       6.666       5.555       4.445       3.335       2.224       1.114      3.3313E-03
   6    9.997       8.887       7.776       6.666       5.555       4.445       3.335       2.224       1.114      3.3313E-03
   7    9.997       8.887       7.776       6.666       5.555       4.445       3.335       2.224       1.114      3.3313E-03
   8    9.997       8.887       7.776       6.666       5.555       4.445       3.335       2.224       1.114      3.3313E-03
   9    9.997       8.887       7.776       6.666       5.555       4.445       3.335       2.224       1.114      3.3313E-03
  10    9.997       8.887       7.776       6.666       5.555       4.445       3.335       2.224       1.114      3.3313E-03
1
              HEAD IN LAYER   2 AT END OF TIME STEP  97 IN STRESS PERIOD    2
  ---------------------------------------------------------------------------

            1           2           3           4           5           6           7           8           9          10
 ........................................................................................................................
   1    9.997       8.887       7.776       6.666       5.555       4.445       3.335       2.224       1.114      3.3313E-03
   2    9.997       8.887       7.776       6.666       5.555       4.445       3.335       2.224       1.114      3.3313E-03
   3    9.997       8.887       7.776       6.666       5.555       4.445       3.335       2.224       1.114      3.3313E-03
   4    9.997       8.887       7.776       6.666       5.555       4.445       3.335       2.224       1.114      3.3313E-03
   5    9.997       8.887       7.776       6.666       5.555       4.445       3.335       2.224       1.114      3.3313E-03
   6    9.997       8.887       7.776       6.666       5.555       4.445       3.335       2.224       1.114      3.3313E-03
   7    9.997       8.887       7.776       6.666       5.555       4.445       3.335       2.224       1.114      3.3313E-03
   8    9.997       8.887       7.776       6.666       5.555       4.445       3.335       2.224       1.114      3.3313E-03
   9    9.997       8.887       7.776       6.666       5.555       4.445       3.335       2.224       1.114      3.3313E-03
  10    9.997       8.887       7.776       6.666       5.555       4.445       3.335       2.224       1.114      3.3313E-03
1
              HEAD IN LAYER   3 AT END OF TIME STEP  97 IN STRESS PERIOD    2
  ---------------------------------------------------------------------------

            1           2           3           4           5           6           7           8           9          10
 ........................................................................................................................
   1    9.997       8.887       7.776       6.666       5.555       4.445       3.335       2.224       1.114      3.3313E-03
   2    9.997       8.887       7.776       6.666       5.555       4.445       3.335       2.224       1.114      3.3313E-03
   3    9.997       8.887       7.776       6.666       5.555       4.445       3.335       2.224       1.114      3.3313E-03
   4    9.997       8.887       7.776       6.666       5.555       4.445       3.335       2.224       1.114      3.3313E-03
   5    9.997       8.887       7.776       6.666       5.555       4.445       3.335       2.224       1.114      3.3313E-03
   6    9.997       8.887       7.776       6.666       5.555       4.445       3.335       2.224       1.114      3.3313E-03
   7    9.997       8.887       7.776       6.666       5.555       4.445       3.335       2.224       1.114      3.3313E-03
   8    9.997       8.887       7.776       6.666       5.555       4.445       3.335       2.224       1.114      3.3313E-03
   9    9.997       8.887       7.776       6.666       5.555       4.445       3.335       2.224       1.114      3.3313E-03
  10    9.997       8.887       7.776       6.666       5.555       4.445       3.335       2.224       1.114      3.3313E-03
1
              HEAD IN LAYER   4 AT END OF TIME STEP  97 IN STRESS PERIOD    2
  ---------------------------------------------------------------------------

            1           2           3           4           5           6           7           8           9          10
 ........................................................................................................................
   1    9.997       8.887       7.776       6.666       5.555       4.445       3.335       2.224       1.114      3.3313E-03
   2    9.997       8.887       7.776       6.666       5.555       4.445       3.335       2.224       1.114      3.3313E-03
   3    9.997       8.887       7.776       6.666       5.555       4.445       3.335       2.224       1.114      3.3313E-03
   4    9.997       8.887       7.776       6.666       5.555       4.445       3.335       2.224       1.114      3.3313E-03
   5    9.997       8.887       7.776       6.666       5.555       4.445       3.335       2.224       1.114      3.3313E-03
   6    9.997       8.887       7.776       6.666       5.555       4.445       3.335       2.224       1.114      3.3313E-03
   7    9.997       8.887       7.776       6.666       5.555       4.445       3.335       2.224       1.114      3.3313E-03
   8    9.997       8.887       7.776       6.666       5.555       4.445       3.335       2.224       1.114      3.3313E-03
   9    9.997       8.887       7.776       6.666       5.555       4.445       3.335       2.224       1.114      3.3313E-03
  10    9.997       8.887       7.776       6.666       5.555       4.445       3.335       2.224       1.114      3.3313E-03

 HEAD WILL BE SAVED ON UNIT   51 AT END OF TIME STEP   97, STRESS PERIOD    2

 DRAWDOWN WILL BE SAVED ON UNIT   52 AT END OF TIME STEP   97, STRESS PERIOD    2
1
  VOLUMETRIC BUDGET FOR ENTIRE MODEL AT END OF TIME STEP   97, STRESS PERIOD   2
  ------------------------------------------------------------------------------

     CUMULATIVE VOLUMES      L**3       RATES FOR THIS TIME STEP      L**3/T
     ------------------                 ------------------------

           IN:                                      IN:
           ---                                      ---
             STORAGE =       1.0477E-08               STORAGE =           0.0000
       CONSTANT HEAD =           0.0000         CONSTANT HEAD =           0.0000
               WELLS =           0.0000                 WELLS =           0.0000
     HEAD DEP BOUNDS =       65298.5703       HEAD DEP BOUNDS =         666.3123

            TOTAL IN =       65298.5703              TOTAL IN =         666.3123

          OUT:                                     OUT:
          ----                                     ----
             STORAGE =       5.2387E-08               STORAGE =           0.0000
       CONSTANT HEAD =           0.0000         CONSTANT HEAD =           0.0000
               WELLS =           0.0000                 WELLS =           0.0000
     HEAD DEP BOUNDS =       65293.3594       HEAD DEP BOUNDS =         666.2595

           TOTAL OUT =       65293.3594             TOTAL OUT =         666.2595

            IN - OUT =           5.2109              IN - OUT =       5.2795E-02

 PERCENT DISCREPANCY =           0.01     PERCENT DISCREPANCY =           0.01






         TIME SUMMARY AT END OF TIME STEP   97 IN STRESS PERIOD    2
                    SECONDS     MINUTES      HOURS       DAYS        YEARS
                    -----------------------------------------------------------
   TIME STEP LENGTH  86400.      1440.0      24.000      1.0000     2.73785E-03
 STRESS PERIOD TIME 8.38080E+06 1.39680E+05  2328.0      97.000     0.26557    
         TOTAL TIME 8.46720E+06 1.41120E+05  2352.0      98.000     0.26831    
1
 
 SOLVING FOR HEAD 

 OUTPUT CONTROL FOR STRESS PERIOD    2   TIME STEP   98
    SAVE HEAD FOR ALL LAYERS
    SAVE DRAWDOWN FOR ALL LAYERS
    SAVE BUDGET
    PRINT HEAD FOR ALL LAYERS
    PRINT BUDGET
 UBDSV1 SAVING "         STORAGE" ON UNIT  53 AT TIME STEP 98, STRESS PERIOD   2
 UBDSV2 SAVING "   CONSTANT HEAD" ON UNIT  53 AT TIME STEP 98, STRESS PERIOD   2
 UBDSV1 SAVING "FLOW RIGHT FACE " ON UNIT  53 AT TIME STEP 98, STRESS PERIOD   2
 UBDSV1 SAVING "FLOW FRONT FACE " ON UNIT  53 AT TIME STEP 98, STRESS PERIOD   2
 UBDSV1 SAVING "FLOW LOWER FACE " ON UNIT  53 AT TIME STEP 98, STRESS PERIOD   2
1
              HEAD IN LAYER   1 AT END OF TIME STEP  98 IN STRESS PERIOD    2
  ---------------------------------------------------------------------------

            1           2           3           4           5           6           7           8           9          10
 ........................................................................................................................
   1    9.997       8.887       7.776       6.666       5.555       4.445       3.335       2.224       1.114      3.3313E-03
   2    9.997       8.887       7.776       6.666       5.555       4.445       3.335       2.224       1.114      3.3313E-03
   3    9.997       8.887       7.776       6.666       5.555       4.445       3.335       2.224       1.114      3.3313E-03
   4    9.997       8.887       7.776       6.666       5.555       4.445       3.335       2.224       1.114      3.3313E-03
   5    9.997       8.887       7.776       6.666       5.555       4.445       3.335       2.224       1.114      3.3313E-03
   6    9.997       8.887       7.776       6.666       5.555       4.445       3.335       2.224       1.114      3.3313E-03
   7    9.997       8.887       7.776       6.666       5.555       4.445       3.335       2.224       1.114      3.3313E-03
   8    9.997       8.887       7.776       6.666       5.555       4.445       3.335       2.224       1.114      3.3313E-03
   9    9.997       8.887       7.776       6.666       5.555       4.445       3.335       2.224       1.114      3.3313E-03
  10    9.997       8.887       7.776       6.666       5.555       4.445       3.335       2.224       1.114      3.3313E-03
1
              HEAD IN LAYER   2 AT END OF TIME STEP  98 IN STRESS PERIOD    2
  ---------------------------------------------------------------------------

            1           2           3           4           5           6           7           8           9          10
 ........................................................................................................................
   1    9.997       8.887       7.776       6.666       5.555       4.445       3.335       2.224       1.114      3.3313E-03
   2    9.997       8.887       7.776       6.666       5.555       4.445       3.335       2.224       1.114      3.3313E-03
   3    9.997       8.887       7.776       6.666       5.555       4.445       3.335       2.224       1.114      3.3313E-03
   4    9.997       8.887       7.776       6.666       5.555       4.445       3.335       2.224       1.114      3.3313E-03
   5    9.997       8.887       7.776       6.666       5.555       4.445       3.335       2.224       1.114      3.3313E-03
   6    9.997       8.887       7.776       6.666       5.555       4.445       3.335       2.224       1.114      3.3313E-03
   7    9.997       8.887       7.776       6.666       5.555       4.445       3.335       2.224       1.114      3.3313E-03
   8    9.997       8.887       7.776       6.666       5.555       4.445       3.335       2.224       1.114      3.3313E-03
   9    9.997       8.887       7.776       6.666       5.555       4.445       3.335       2.224       1.114      3.3313E-03
  10    9.997       8.887       7.776       6.666       5.555       4.445       3.335       2.224       1.114      3.3313E-03
1
              HEAD IN LAYER   3 AT END OF TIME STEP  98 IN STRESS PERIOD    2
  ---------------------------------------------------------------------------

            1           2           3           4           5           6           7           8           9          10
 ........................................................................................................................
   1    9.997       8.887       7.776       6.666       5.555       4.445       3.335       2.224       1.114      3.3313E-03
   2    9.997       8.887       7.776       6.666       5.555       4.445       3.335       2.224       1.114      3.3313E-03
   3    9.997       8.887       7.776       6.666       5.555       4.445       3.335       2.224       1.114      3.3313E-03
   4    9.997       8.887       7.776       6.666       5.555       4.445       3.335       2.224       1.114      3.3313E-03
   5    9.997       8.887       7.776       6.666       5.555       4.445       3.335       2.224       1.114      3.3313E-03
   6    9.997       8.887       7.776       6.666       5.555       4.445       3.335       2.224       1.114      3.3313E-03
   7    9.997       8.887       7.776       6.666       5.555       4.445       3.335       2.224       1.114      3.3313E-03
   8    9.997       8.887       7.776       6.666       5.555       4.445       3.335       2.224       1.114      3.3313E-03
   9    9.997       8.887       7.776       6.666       5.555       4.445       3.335       2.224       1.114      3.3313E-03
  10    9.997       8.887       7.776       6.666       5.555       4.445       3.335       2.224       1.114      3.3313E-03
1
              HEAD IN LAYER   4 AT END OF TIME STEP  98 IN STRESS PERIOD    2
  ---------------------------------------------------------------------------

            1           2           3           4           5           6           7           8           9          10
 ........................................................................................................................
   1    9.997       8.887       7.776       6.666       5.555       4.445       3.335       2.224       1.114      3.3313E-03
   2    9.997       8.887       7.776       6.666       5.555       4.445       3.335       2.224       1.114      3.3313E-03
   3    9.997       8.887       7.776       6.666       5.555       4.445       3.335       2.224       1.114      3.3313E-03
   4    9.997       8.887       7.776       6.666       5.555       4.445       3.335       2.224       1.114      3.3313E-03
   5    9.997       8.887       7.776       6.666       5.555       4.445       3.335       2.224       1.114      3.3313E-03
   6    9.997       8.887       7.776       6.666       5.555       4.445       3.335       2.224       1.114      3.3313E-03
   7    9.997       8.887       7.776       6.666       5.555       4.445       3.335       2.224       1.114      3.3313E-03
   8    9.997       8.887       7.776       6.666       5.555       4.445       3.335       2.224       1.114      3.3313E-03
   9    9.997       8.887       7.776       6.666       5.555       4.445       3.335       2.224       1.114      3.3313E-03
  10    9.997       8.887       7.776       6.666       5.555       4.445       3.335       2.224       1.114      3.3313E-03

 HEAD WILL BE SAVED ON UNIT   51 AT END OF TIME STEP   98, STRESS PERIOD    2

 DRAWDOWN WILL BE SAVED ON UNIT   52 AT END OF TIME STEP   98, STRESS PERIOD    2
1
  VOLUMETRIC BUDGET FOR ENTIRE MODEL AT END OF TIME STEP   98, STRESS PERIOD   2
  ------------------------------------------------------------------------------

     CUMULATIVE VOLUMES      L**3       RATES FOR THIS TIME STEP      L**3/T
     ------------------                 ------------------------

           IN:                                      IN:
           ---                                      ---
             STORAGE =       1.0477E-08               STORAGE =           0.0000
       CONSTANT HEAD =           0.0000         CONSTANT HEAD =           0.0000
               WELLS =           0.0000                 WELLS =           0.0000
     HEAD DEP BOUNDS =       65964.8828       HEAD DEP BOUNDS =         666.3123

            TOTAL IN =       65964.8828              TOTAL IN =         666.3123

          OUT:                                     OUT:
          ----                                     ----
             STORAGE =       5.2387E-08               STORAGE =           0.0000
       CONSTANT HEAD =           0.0000         CONSTANT HEAD =           0.0000
               WELLS =           0.0000                 WELLS =           0.0000
     HEAD DEP BOUNDS =       65959.6172       HEAD DEP BOUNDS =         666.2595

           TOTAL OUT =       65959.6172             TOTAL OUT =         666.2595

            IN - OUT =           5.2656              IN - OUT =       5.2795E-02

 PERCENT DISCREPANCY =           0.01     PERCENT DISCREPANCY =           0.01






         TIME SUMMARY AT END OF TIME STEP   98 IN STRESS PERIOD    2
                    SECONDS     MINUTES      HOURS       DAYS        YEARS
                    -----------------------------------------------------------
   TIME STEP LENGTH  86400.      1440.0      24.000      1.0000     2.73785E-03
 STRESS PERIOD TIME 8.46720E+06 1.41120E+05  2352.0      98.000     0.26831    
         TOTAL TIME 8.55360E+06 1.42560E+05  2376.0      99.000     0.27105    
1
 
 SOLVING FOR HEAD 

 OUTPUT CONTROL FOR STRESS PERIOD    2   TIME STEP   99
    SAVE HEAD FOR ALL LAYERS
    SAVE DRAWDOWN FOR ALL LAYERS
    SAVE BUDGET
    PRINT HEAD FOR ALL LAYERS
    PRINT BUDGET
 UBDSV1 SAVING "         STORAGE" ON UNIT  53 AT TIME STEP 99, STRESS PERIOD   2
 UBDSV2 SAVING "   CONSTANT HEAD" ON UNIT  53 AT TIME STEP 99, STRESS PERIOD   2
 UBDSV1 SAVING "FLOW RIGHT FACE " ON UNIT  53 AT TIME STEP 99, STRESS PERIOD   2
 UBDSV1 SAVING "FLOW FRONT FACE " ON UNIT  53 AT TIME STEP 99, STRESS PERIOD   2
 UBDSV1 SAVING "FLOW LOWER FACE " ON UNIT  53 AT TIME STEP 99, STRESS PERIOD   2
1
              HEAD IN LAYER   1 AT END OF TIME STEP  99 IN STRESS PERIOD    2
  ---------------------------------------------------------------------------

            1           2           3           4           5           6           7           8           9          10
 ........................................................................................................................
   1    9.997       8.887       7.776       6.666       5.555       4.445       3.335       2.224       1.114      3.3313E-03
   2    9.997       8.887       7.776       6.666       5.555       4.445       3.335       2.224       1.114      3.3313E-03
   3    9.997       8.887       7.776       6.666       5.555       4.445       3.335       2.224       1.114      3.3313E-03
   4    9.997       8.887       7.776       6.666       5.555       4.445       3.335       2.224       1.114      3.3313E-03
   5    9.997       8.887       7.776       6.666       5.555       4.445       3.335       2.224       1.114      3.3313E-03
   6    9.997       8.887       7.776       6.666       5.555       4.445       3.335       2.224       1.114      3.3313E-03
   7    9.997       8.887       7.776       6.666       5.555       4.445       3.335       2.224       1.114      3.3313E-03
   8    9.997       8.887       7.776       6.666       5.555       4.445       3.335       2.224       1.114      3.3313E-03
   9    9.997       8.887       7.776       6.666       5.555       4.445       3.335       2.224       1.114      3.3313E-03
  10    9.997       8.887       7.776       6.666       5.555       4.445       3.335       2.224       1.114      3.3313E-03
1
              HEAD IN LAYER   2 AT END OF TIME STEP  99 IN STRESS PERIOD    2
  ---------------------------------------------------------------------------

            1           2           3           4           5           6           7           8           9          10
 ........................................................................................................................
   1    9.997       8.887       7.776       6.666       5.555       4.445       3.335       2.224       1.114      3.3313E-03
   2    9.997       8.887       7.776       6.666       5.555       4.445       3.335       2.224       1.114      3.3313E-03
   3    9.997       8.887       7.776       6.666       5.555       4.445       3.335       2.224       1.114      3.3313E-03
   4    9.997       8.887       7.776       6.666       5.555       4.445       3.335       2.224       1.114      3.3313E-03
   5    9.997       8.887       7.776       6.666       5.555       4.445       3.335       2.224       1.114      3.3313E-03
   6    9.997       8.887       7.776       6.666       5.555       4.445       3.335       2.224       1.114      3.3313E-03
   7    9.997       8.887       7.776       6.666       5.555       4.445       3.335       2.224       1.114      3.3313E-03
   8    9.997       8.887       7.776       6.666       5.555       4.445       3.335       2.224       1.114      3.3313E-03
   9    9.997       8.887       7.776       6.666       5.555       4.445       3.335       2.224       1.114      3.3313E-03
  10    9.997       8.887       7.776       6.666       5.555       4.445       3.335       2.224       1.114      3.3313E-03
1
              HEAD IN LAYER   3 AT END OF TIME STEP  99 IN STRESS PERIOD    2
  ---------------------------------------------------------------------------

            1           2           3           4           5           6           7           8           9          10
 ........................................................................................................................
   1    9.997       8.887       7.776       6.666       5.555       4.445       3.335       2.224       1.114      3.3313E-03
   2    9.997       8.887       7.776       6.666       5.555       4.445       3.335       2.224       1.114      3.3313E-03
   3    9.997       8.887       7.776       6.666       5.555       4.445       3.335       2.224       1.114      3.3313E-03
   4    9.997       8.887       7.776       6.666       5.555       4.445       3.335       2.224       1.114      3.3313E-03
   5    9.997       8.887       7.776       6.666       5.555       4.445       3.335       2.224       1.114      3.3313E-03
   6    9.997       8.887       7.776       6.666       5.555       4.445       3.335       2.224       1.114      3.3313E-03
   7    9.997       8.887       7.776       6.666       5.555       4.445       3.335       2.224       1.114      3.3313E-03
   8    9.997       8.887       7.776       6.666       5.555       4.445       3.335       2.224       1.114      3.3313E-03
   9    9.997       8.887       7.776       6.666       5.555       4.445       3.335       2.224       1.114      3.3313E-03
  10    9.997       8.887       7.776       6.666       5.555       4.445       3.335       2.224       1.114      3.3313E-03
1
              HEAD IN LAYER   4 AT END OF TIME STEP  99 IN STRESS PERIOD    2
  ---------------------------------------------------------------------------

            1           2           3           4           5           6           7           8           9          10
 ........................................................................................................................
   1    9.997       8.887       7.776       6.666       5.555       4.445       3.335       2.224       1.114      3.3313E-03
   2    9.997       8.887       7.776       6.666       5.555       4.445       3.335       2.224       1.114      3.3313E-03
   3    9.997       8.887       7.776       6.666       5.555       4.445       3.335       2.224       1.114      3.3313E-03
   4    9.997       8.887       7.776       6.666       5.555       4.445       3.335       2.224       1.114      3.3313E-03
   5    9.997       8.887       7.776       6.666       5.555       4.445       3.335       2.224       1.114      3.3313E-03
   6    9.997       8.887       7.776       6.666       5.555       4.445       3.335       2.224       1.114      3.3313E-03
   7    9.997       8.887       7.776       6.666       5.555       4.445       3.335       2.224       1.114      3.3313E-03
   8    9.997       8.887       7.776       6.666       5.555       4.445       3.335       2.224       1.114      3.3313E-03
   9    9.997       8.887       7.776       6.666       5.555       4.445       3.335       2.224       1.114      3.3313E-03
  10    9.997       8.887       7.776       6.666       5.555       4.445       3.335       2.224       1.114      3.3313E-03

 HEAD WILL BE SAVED ON UNIT   51 AT END OF TIME STEP   99, STRESS PERIOD    2

 DRAWDOWN WILL BE SAVED ON UNIT   52 AT END OF TIME STEP   99, STRESS PERIOD    2
1
  VOLUMETRIC BUDGET FOR ENTIRE MODEL AT END OF TIME STEP   99, STRESS PERIOD   2
  ------------------------------------------------------------------------------

     CUMULATIVE VOLUMES      L**3       RATES FOR THIS TIME STEP      L**3/T
     ------------------                 ------------------------

           IN:                                      IN:
           ---                                      ---
             STORAGE =       1.0477E-08               STORAGE =           0.0000
       CONSTANT HEAD =           0.0000         CONSTANT HEAD =           0.0000
               WELLS =           0.0000                 WELLS =           0.0000
     HEAD DEP BOUNDS =       66631.1953       HEAD DEP BOUNDS =         666.3123

            TOTAL IN =       66631.1953              TOTAL IN =         666.3123

          OUT:                                     OUT:
          ----                                     ----
             STORAGE =       5.2387E-08               STORAGE =           0.0000
       CONSTANT HEAD =           0.0000         CONSTANT HEAD =           0.0000
               WELLS =           0.0000                 WELLS =           0.0000
     HEAD DEP BOUNDS =       66625.8750       HEAD DEP BOUNDS =         666.2595

           TOTAL OUT =       66625.8750             TOTAL OUT =         666.2595

            IN - OUT =           5.3203              IN - OUT =       5.2795E-02

 PERCENT DISCREPANCY =           0.01     PERCENT DISCREPANCY =           0.01






         TIME SUMMARY AT END OF TIME STEP   99 IN STRESS PERIOD    2
                    SECONDS     MINUTES      HOURS       DAYS        YEARS
                    -----------------------------------------------------------
   TIME STEP LENGTH  86400.      1440.0      24.000      1.0000     2.73785E-03
 STRESS PERIOD TIME 8.55360E+06 1.42560E+05  2376.0      99.000     0.27105    
         TOTAL TIME 8.64000E+06 1.44000E+05  2400.0      100.00     0.27379    
1
 
 SOLVING FOR HEAD 

 OUTPUT CONTROL FOR STRESS PERIOD    2   TIME STEP  100
    SAVE HEAD FOR ALL LAYERS
    SAVE DRAWDOWN FOR ALL LAYERS
    SAVE BUDGET
    PRINT HEAD FOR ALL LAYERS
    PRINT BUDGET
 UBDSV1 SAVING "         STORAGE" ON UNIT  53 AT TIME STEP100, STRESS PERIOD   2
 UBDSV2 SAVING "   CONSTANT HEAD" ON UNIT  53 AT TIME STEP100, STRESS PERIOD   2
 UBDSV1 SAVING "FLOW RIGHT FACE " ON UNIT  53 AT TIME STEP100, STRESS PERIOD   2
 UBDSV1 SAVING "FLOW FRONT FACE " ON UNIT  53 AT TIME STEP100, STRESS PERIOD   2
 UBDSV1 SAVING "FLOW LOWER FACE " ON UNIT  53 AT TIME STEP100, STRESS PERIOD   2
1
              HEAD IN LAYER   1 AT END OF TIME STEP 100 IN STRESS PERIOD    2
  ---------------------------------------------------------------------------

            1           2           3           4           5           6           7           8           9          10
 ........................................................................................................................
   1    9.997       8.887       7.776       6.666       5.555       4.445       3.335       2.224       1.114      3.3313E-03
   2    9.997       8.887       7.776       6.666       5.555       4.445       3.335       2.224       1.114      3.3313E-03
   3    9.997       8.887       7.776       6.666       5.555       4.445       3.335       2.224       1.114      3.3313E-03
   4    9.997       8.887       7.776       6.666       5.555       4.445       3.335       2.224       1.114      3.3313E-03
   5    9.997       8.887       7.776       6.666       5.555       4.445       3.335       2.224       1.114      3.3313E-03
   6    9.997       8.887       7.776       6.666       5.555       4.445       3.335       2.224       1.114      3.3313E-03
   7    9.997       8.887       7.776       6.666       5.555       4.445       3.335       2.224       1.114      3.3313E-03
   8    9.997       8.887       7.776       6.666       5.555       4.445       3.335       2.224       1.114      3.3313E-03
   9    9.997       8.887       7.776       6.666       5.555       4.445       3.335       2.224       1.114      3.3313E-03
  10    9.997       8.887       7.776       6.666       5.555       4.445       3.335       2.224       1.114      3.3313E-03
1
              HEAD IN LAYER   2 AT END OF TIME STEP 100 IN STRESS PERIOD    2
  ---------------------------------------------------------------------------

            1           2           3           4           5           6           7           8           9          10
 ........................................................................................................................
   1    9.997       8.887       7.776       6.666       5.555       4.445       3.335       2.224       1.114      3.3313E-03
   2    9.997       8.887       7.776       6.666       5.555       4.445       3.335       2.224       1.114      3.3313E-03
   3    9.997       8.887       7.776       6.666       5.555       4.445       3.335       2.224       1.114      3.3313E-03
   4    9.997       8.887       7.776       6.666       5.555       4.445       3.335       2.224       1.114      3.3313E-03
   5    9.997       8.887       7.776       6.666       5.555       4.445       3.335       2.224       1.114      3.3313E-03
   6    9.997       8.887       7.776       6.666       5.555       4.445       3.335       2.224       1.114      3.3313E-03
   7    9.997       8.887       7.776       6.666       5.555       4.445       3.335       2.224       1.114      3.3313E-03
   8    9.997       8.887       7.776       6.666       5.555       4.445       3.335       2.224       1.114      3.3313E-03
   9    9.997       8.887       7.776       6.666       5.555       4.445       3.335       2.224       1.114      3.3313E-03
  10    9.997       8.887       7.776       6.666       5.555       4.445       3.335       2.224       1.114      3.3313E-03
1
              HEAD IN LAYER   3 AT END OF TIME STEP 100 IN STRESS PERIOD    2
  ---------------------------------------------------------------------------

            1           2           3           4           5           6           7           8           9          10
 ........................................................................................................................
   1    9.997       8.887       7.776       6.666       5.555       4.445       3.335       2.224       1.114      3.3313E-03
   2    9.997       8.887       7.776       6.666       5.555       4.445       3.335       2.224       1.114      3.3313E-03
   3    9.997       8.887       7.776       6.666       5.555       4.445       3.335       2.224       1.114      3.3313E-03
   4    9.997       8.887       7.776       6.666       5.555       4.445       3.335       2.224       1.114      3.3313E-03
   5    9.997       8.887       7.776       6.666       5.555       4.445       3.335       2.224       1.114      3.3313E-03
   6    9.997       8.887       7.776       6.666       5.555       4.445       3.335       2.224       1.114      3.3313E-03
   7    9.997       8.887       7.776       6.666       5.555       4.445       3.335       2.224       1.114      3.3313E-03
   8    9.997       8.887       7.776       6.666       5.555       4.445       3.335       2.224       1.114      3.3313E-03
   9    9.997       8.887       7.776       6.666       5.555       4.445       3.335       2.224       1.114      3.3313E-03
  10    9.997       8.887       7.776       6.666       5.555       4.445       3.335       2.224       1.114      3.3313E-03
1
              HEAD IN LAYER   4 AT END OF TIME STEP 100 IN STRESS PERIOD    2
  ---------------------------------------------------------------------------

            1           2           3           4           5           6           7           8           9          10
 ........................................................................................................................
   1    9.997       8.887       7.776       6.666       5.555       4.445       3.335       2.224       1.114      3.3313E-03
   2    9.997       8.887       7.776       6.666       5.555       4.445       3.335       2.224       1.114      3.3313E-03
   3    9.997       8.887       7.776       6.666       5.555       4.445       3.335       2.224       1.114      3.3313E-03
   4    9.997       8.887       7.776       6.666       5.555       4.445       3.335       2.224       1.114      3.3313E-03
   5    9.997       8.887       7.776       6.666       5.555       4.445       3.335       2.224       1.114      3.3313E-03
   6    9.997       8.887       7.776       6.666       5.555       4.445       3.335       2.224       1.114      3.3313E-03
   7    9.997       8.887       7.776       6.666       5.555       4.445       3.335       2.224       1.114      3.3313E-03
   8    9.997       8.887       7.776       6.666       5.555       4.445       3.335       2.224       1.114      3.3313E-03
   9    9.997       8.887       7.776       6.666       5.555       4.445       3.335       2.224       1.114      3.3313E-03
  10    9.997       8.887       7.776       6.666       5.555       4.445       3.335       2.224       1.114      3.3313E-03

 HEAD WILL BE SAVED ON UNIT   51 AT END OF TIME STEP  100, STRESS PERIOD    2

 DRAWDOWN WILL BE SAVED ON UNIT   52 AT END OF TIME STEP  100, STRESS PERIOD    2
1
  VOLUMETRIC BUDGET FOR ENTIRE MODEL AT END OF TIME STEP  100, STRESS PERIOD   2
  ------------------------------------------------------------------------------

     CUMULATIVE VOLUMES      L**3       RATES FOR THIS TIME STEP      L**3/T
     ------------------                 ------------------------

           IN:                                      IN:
           ---                                      ---
             STORAGE =       1.0477E-08               STORAGE =           0.0000
       CONSTANT HEAD =           0.0000         CONSTANT HEAD =           0.0000
               WELLS =           0.0000                 WELLS =           0.0000
     HEAD DEP BOUNDS =       67297.5078       HEAD DEP BOUNDS =         666.3123

            TOTAL IN =       67297.5078              TOTAL IN =         666.3123

          OUT:                                     OUT:
          ----                                     ----
             STORAGE =       5.2387E-08               STORAGE =           0.0000
       CONSTANT HEAD =           0.0000         CONSTANT HEAD =           0.0000
               WELLS =           0.0000                 WELLS =           0.0000
     HEAD DEP BOUNDS =       67292.1328       HEAD DEP BOUNDS =         666.2595

           TOTAL OUT =       67292.1328             TOTAL OUT =         666.2595

            IN - OUT =           5.3750              IN - OUT =       5.2795E-02

 PERCENT DISCREPANCY =           0.01     PERCENT DISCREPANCY =           0.01






         TIME SUMMARY AT END OF TIME STEP  100 IN STRESS PERIOD    2
                    SECONDS     MINUTES      HOURS       DAYS        YEARS
                    -----------------------------------------------------------
   TIME STEP LENGTH  86400.      1440.0      24.000      1.0000     2.73785E-03
 STRESS PERIOD TIME 8.64000E+06 1.44000E+05  2400.0      100.00     0.27379    
         TOTAL TIME 8.72640E+06 1.45440E+05  2424.0      101.00     0.27652    
1
1
                            STRESS PERIOD NO.    3, LENGTH =   100.0000    
                            -----------------------------------------------

                              NUMBER OF TIME STEPS =   100

                               MULTIPLIER FOR DELT =     1.000

                            INITIAL TIME STEP SIZE =   1.000000    

 WELL NO.  LAYER   ROW   COL   STRESS RATE         
 --------------------------------------------------
      1      1      5      5       0.000    

      1 WELL 

 REUSING NON-PARAMETER GHB CELLS FROM LAST STRESS PERIOD

     80 GHB CELLS
 
 SOLVING FOR HEAD 

 OUTPUT CONTROL FOR STRESS PERIOD    3   TIME STEP    1
    SAVE HEAD FOR ALL LAYERS
    SAVE DRAWDOWN FOR ALL LAYERS
    SAVE BUDGET
    PRINT HEAD FOR ALL LAYERS
    PRINT BUDGET
 UBDSV1 SAVING "         STORAGE" ON UNIT  53 AT TIME STEP  1, STRESS PERIOD   3
 UBDSV2 SAVING "   CONSTANT HEAD" ON UNIT  53 AT TIME STEP  1, STRESS PERIOD   3
 UBDSV1 SAVING "FLOW RIGHT FACE " ON UNIT  53 AT TIME STEP  1, STRESS PERIOD   3
 UBDSV1 SAVING "FLOW FRONT FACE " ON UNIT  53 AT TIME STEP  1, STRESS PERIOD   3
 UBDSV1 SAVING "FLOW LOWER FACE " ON UNIT  53 AT TIME STEP  1, STRESS PERIOD   3
1
              HEAD IN LAYER   1 AT END OF TIME STEP   1 IN STRESS PERIOD    3
  ---------------------------------------------------------------------------

            1           2           3           4           5           6           7           8           9          10
 ........................................................................................................................
   1    9.997       8.887       7.776       6.666       5.555       4.445       3.335       2.224       1.114      3.3313E-03
   2    9.997       8.887       7.776       6.666       5.555       4.445       3.335       2.224       1.114      3.3313E-03
   3    9.997       8.887       7.776       6.666       5.555       4.445       3.335       2.224       1.114      3.3313E-03
   4    9.997       8.887       7.776       6.666       5.555       4.445       3.335       2.224       1.114      3.3313E-03
   5    9.997       8.887       7.776       6.666       5.555       4.445       3.335       2.224       1.114      3.3313E-03
   6    9.997       8.887       7.776       6.666       5.555       4.445       3.335       2.224       1.114      3.3313E-03
   7    9.997       8.887       7.776       6.666       5.555       4.445       3.335       2.224       1.114      3.3313E-03
   8    9.997       8.887       7.776       6.666       5.555       4.445       3.335       2.224       1.114      3.3313E-03
   9    9.997       8.887       7.776       6.666       5.555       4.445       3.335       2.224       1.114      3.3313E-03
  10    9.997       8.887       7.776       6.666       5.555       4.445       3.335       2.224       1.114      3.3313E-03
1
              HEAD IN LAYER   2 AT END OF TIME STEP   1 IN STRESS PERIOD    3
  ---------------------------------------------------------------------------

            1           2           3           4           5           6           7           8           9          10
 ........................................................................................................................
   1    9.997       8.887       7.776       6.666       5.555       4.445       3.335       2.224       1.114      3.3313E-03
   2    9.997       8.887       7.776       6.666       5.555       4.445       3.335       2.224       1.114      3.3313E-03
   3    9.997       8.887       7.776       6.666       5.555       4.445       3.335       2.224       1.114      3.3313E-03
   4    9.997       8.887       7.776       6.666       5.555       4.445       3.335       2.224       1.114      3.3313E-03
   5    9.997       8.887       7.776       6.666       5.555       4.445       3.335       2.224       1.114      3.3313E-03
   6    9.997       8.887       7.776       6.666       5.555       4.445       3.335       2.224       1.114      3.3313E-03
   7    9.997       8.887       7.776       6.666       5.555       4.445       3.335       2.224       1.114      3.3313E-03
   8    9.997       8.887       7.776       6.666       5.555       4.445       3.335       2.224       1.114      3.3313E-03
   9    9.997       8.887       7.776       6.666       5.555       4.445       3.335       2.224       1.114      3.3313E-03
  10    9.997       8.887       7.776       6.666       5.555       4.445       3.335       2.224       1.114      3.3313E-03
1
              HEAD IN LAYER   3 AT END OF TIME STEP   1 IN STRESS PERIOD    3
  ---------------------------------------------------------------------------

            1           2           3           4           5           6           7           8           9          10
 ........................................................................................................................
   1    9.997       8.887       7.776       6.666       5.555       4.445       3.335       2.224       1.114      3.3313E-03
   2    9.997       8.887       7.776       6.666       5.555       4.445       3.335       2.224       1.114      3.3313E-03
   3    9.997       8.887       7.776       6.666       5.555       4.445       3.335       2.224       1.114      3.3313E-03
   4    9.997       8.887       7.776       6.666       5.555       4.445       3.335       2.224       1.114      3.3313E-03
   5    9.997       8.887       7.776       6.666       5.555       4.445       3.335       2.224       1.114      3.3313E-03
   6    9.997       8.887       7.776       6.666       5.555       4.445       3.335       2.224       1.114      3.3313E-03
   7    9.997       8.887       7.776       6.666       5.555       4.445       3.335       2.224       1.114      3.3313E-03
   8    9.997       8.887       7.776       6.666       5.555       4.445       3.335       2.224       1.114      3.3313E-03
   9    9.997       8.887       7.776       6.666       5.555       4.445       3.335       2.224       1.114      3.3313E-03
  10    9.997       8.887       7.776       6.666       5.555       4.445       3.335       2.224       1.114      3.3313E-03
1
              HEAD IN LAYER   4 AT END OF TIME STEP   1 IN STRESS PERIOD    3
  ---------------------------------------------------------------------------

            1           2           3           4           5           6           7           8           9          10
 ........................................................................................................................
   1    9.997       8.887       7.776       6.666       5.555       4.445       3.335       2.224       1.114      3.3313E-03
   2    9.997       8.887       7.776       6.666       5.555       4.445       3.335       2.224       1.114      3.3313E-03
   3    9.997       8.887       7.776       6.666       5.555       4.445       3.335       2.224       1.114      3.3313E-03
   4    9.997       8.887       7.776       6.666       5.555       4.445       3.335       2.224       1.114      3.3313E-03
   5    9.997       8.887       7.776       6.666       5.555       4.445       3.335       2.224       1.114      3.3313E-03
   6    9.997       8.887       7.776       6.666       5.555       4.445       3.335       2.224       1.114      3.3313E-03
   7    9.997       8.887       7.776       6.666       5.555       4.445       3.335       2.224       1.114      3.3313E-03
   8    9.997       8.887       7.776       6.666       5.555       4.445       3.335       2.224       1.114      3.3313E-03
   9    9.997       8.887       7.776       6.666       5.555       4.445       3.335       2.224       1.114      3.3313E-03
  10    9.997       8.887       7.776       6.666       5.555       4.445       3.335       2.224       1.114      3.3313E-03

 HEAD WILL BE SAVED ON UNIT   51 AT END OF TIME STEP    1, STRESS PERIOD    3

 DRAWDOWN WILL BE SAVED ON UNIT   52 AT END OF TIME STEP    1, STRESS PERIOD    3
1
  VOLUMETRIC BUDGET FOR ENTIRE MODEL AT END OF TIME STEP    1, STRESS PERIOD   3
  ------------------------------------------------------------------------------

     CUMULATIVE VOLUMES      L**3       RATES FOR THIS TIME STEP      L**3/T
     ------------------                 ------------------------

           IN:                                      IN:
           ---                                      ---
             STORAGE =       1.0477E-08               STORAGE =           0.0000
       CONSTANT HEAD =           0.0000         CONSTANT HEAD =           0.0000
               WELLS =           0.0000                 WELLS =           0.0000
     HEAD DEP BOUNDS =       67963.8203       HEAD DEP BOUNDS =         666.3123

            TOTAL IN =       67963.8203              TOTAL IN =         666.3123

          OUT:                                     OUT:
          ----                                     ----
             STORAGE =       5.2387E-08               STORAGE =           0.0000
       CONSTANT HEAD =           0.0000         CONSTANT HEAD =           0.0000
               WELLS =           0.0000                 WELLS =           0.0000
     HEAD DEP BOUNDS =       67958.3906       HEAD DEP BOUNDS =         666.2595

           TOTAL OUT =       67958.3906             TOTAL OUT =         666.2595

            IN - OUT =           5.4297              IN - OUT =       5.2795E-02

 PERCENT DISCREPANCY =           0.01     PERCENT DISCREPANCY =           0.01






         TIME SUMMARY AT END OF TIME STEP    1 IN STRESS PERIOD    3
                    SECONDS     MINUTES      HOURS       DAYS        YEARS
                    -----------------------------------------------------------
   TIME STEP LENGTH  86400.      1440.0      24.000      1.0000     2.73785E-03
 STRESS PERIOD TIME  86400.      1440.0      24.000      1.0000     2.73785E-03
         TOTAL TIME 8.81280E+06 1.46880E+05  2448.0      102.00     0.27926    
1
 
 SOLVING FOR HEAD 

 OUTPUT CONTROL FOR STRESS PERIOD    3   TIME STEP    2
    SAVE HEAD FOR ALL LAYERS
    SAVE DRAWDOWN FOR ALL LAYERS
    SAVE BUDGET
    PRINT HEAD FOR ALL LAYERS
    PRINT BUDGET
 UBDSV1 SAVING "         STORAGE" ON UNIT  53 AT TIME STEP  2, STRESS PERIOD   3
 UBDSV2 SAVING "   CONSTANT HEAD" ON UNIT  53 AT TIME STEP  2, STRESS PERIOD   3
 UBDSV1 SAVING "FLOW RIGHT FACE " ON UNIT  53 AT TIME STEP  2, STRESS PERIOD   3
 UBDSV1 SAVING "FLOW FRONT FACE " ON UNIT  53 AT TIME STEP  2, STRESS PERIOD   3
 UBDSV1 SAVING "FLOW LOWER FACE " ON UNIT  53 AT TIME STEP  2, STRESS PERIOD   3
1
              HEAD IN LAYER   1 AT END OF TIME STEP   2 IN STRESS PERIOD    3
  ---------------------------------------------------------------------------

            1           2           3           4           5           6           7           8           9          10
 ........................................................................................................................
   1    9.997       8.887       7.776       6.666       5.555       4.445       3.335       2.224       1.114      3.3313E-03
   2    9.997       8.887       7.776       6.666       5.555       4.445       3.335       2.224       1.114      3.3313E-03
   3    9.997       8.887       7.776       6.666       5.555       4.445       3.335       2.224       1.114      3.3313E-03
   4    9.997       8.887       7.776       6.666       5.555       4.445       3.335       2.224       1.114      3.3313E-03
   5    9.997       8.887       7.776       6.666       5.555       4.445       3.335       2.224       1.114      3.3313E-03
   6    9.997       8.887       7.776       6.666       5.555       4.445       3.335       2.224       1.114      3.3313E-03
   7    9.997       8.887       7.776       6.666       5.555       4.445       3.335       2.224       1.114      3.3313E-03
   8    9.997       8.887       7.776       6.666       5.555       4.445       3.335       2.224       1.114      3.3313E-03
   9    9.997       8.887       7.776       6.666       5.555       4.445       3.335       2.224       1.114      3.3313E-03
  10    9.997       8.887       7.776       6.666       5.555       4.445       3.335       2.224       1.114      3.3313E-03
1
              HEAD IN LAYER   2 AT END OF TIME STEP   2 IN STRESS PERIOD    3
  ---------------------------------------------------------------------------

            1           2           3           4           5           6           7           8           9          10
 ........................................................................................................................
   1    9.997       8.887       7.776       6.666       5.555       4.445       3.335       2.224       1.114      3.3313E-03
   2    9.997       8.887       7.776       6.666       5.555       4.445       3.335       2.224       1.114      3.3313E-03
   3    9.997       8.887       7.776       6.666       5.555       4.445       3.335       2.224       1.114      3.3313E-03
   4    9.997       8.887       7.776       6.666       5.555       4.445       3.335       2.224       1.114      3.3313E-03
   5    9.997       8.887       7.776       6.666       5.555       4.445       3.335       2.224       1.114      3.3313E-03
   6    9.997       8.887       7.776       6.666       5.555       4.445       3.335       2.224       1.114      3.3313E-03
   7    9.997       8.887       7.776       6.666       5.555       4.445       3.335       2.224       1.114      3.3313E-03
   8    9.997       8.887       7.776       6.666       5.555       4.445       3.335       2.224       1.114      3.3313E-03
   9    9.997       8.887       7.776       6.666       5.555       4.445       3.335       2.224       1.114      3.3313E-03
  10    9.997       8.887       7.776       6.666       5.555       4.445       3.335       2.224       1.114      3.3313E-03
1
              HEAD IN LAYER   3 AT END OF TIME STEP   2 IN STRESS PERIOD    3
  ---------------------------------------------------------------------------

            1           2           3           4           5           6           7           8           9          10
 ........................................................................................................................
   1    9.997       8.887       7.776       6.666       5.555       4.445       3.335       2.224       1.114      3.3313E-03
   2    9.997       8.887       7.776       6.666       5.555       4.445       3.335       2.224       1.114      3.3313E-03
   3    9.997       8.887       7.776       6.666       5.555       4.445       3.335       2.224       1.114      3.3313E-03
   4    9.997       8.887       7.776       6.666       5.555       4.445       3.335       2.224       1.114      3.3313E-03
   5    9.997       8.887       7.776       6.666       5.555       4.445       3.335       2.224       1.114      3.3313E-03
   6    9.997       8.887       7.776       6.666       5.555       4.445       3.335       2.224       1.114      3.3313E-03
   7    9.997       8.887       7.776       6.666       5.555       4.445       3.335       2.224       1.114      3.3313E-03
   8    9.997       8.887       7.776       6.666       5.555       4.445       3.335       2.224       1.114      3.3313E-03
   9    9.997       8.887       7.776       6.666       5.555       4.445       3.335       2.224       1.114      3.3313E-03
  10    9.997       8.887       7.776       6.666       5.555       4.445       3.335       2.224       1.114      3.3313E-03
1
              HEAD IN LAYER   4 AT END OF TIME STEP   2 IN STRESS PERIOD    3
  ---------------------------------------------------------------------------

            1           2           3           4           5           6           7           8           9          10
 ........................................................................................................................
   1    9.997       8.887       7.776       6.666       5.555       4.445       3.335       2.224       1.114      3.3313E-03
   2    9.997       8.887       7.776       6.666       5.555       4.445       3.335       2.224       1.114      3.3313E-03
   3    9.997       8.887       7.776       6.666       5.555       4.445       3.335       2.224       1.114      3.3313E-03
   4    9.997       8.887       7.776       6.666       5.555       4.445       3.335       2.224       1.114      3.3313E-03
   5    9.997       8.887       7.776       6.666       5.555       4.445       3.335       2.224       1.114      3.3313E-03
   6    9.997       8.887       7.776       6.666       5.555       4.445       3.335       2.224       1.114      3.3313E-03
   7    9.997       8.887       7.776       6.666       5.555       4.445       3.335       2.224       1.114      3.3313E-03
   8    9.997       8.887       7.776       6.666       5.555       4.445       3.335       2.224       1.114      3.3313E-03
   9    9.997       8.887       7.776       6.666       5.555       4.445       3.335       2.224       1.114      3.3313E-03
  10    9.997       8.887       7.776       6.666       5.555       4.445       3.335       2.224       1.114      3.3313E-03

 HEAD WILL BE SAVED ON UNIT   51 AT END OF TIME STEP    2, STRESS PERIOD    3

 DRAWDOWN WILL BE SAVED ON UNIT   52 AT END OF TIME STEP    2, STRESS PERIOD    3
1
  VOLUMETRIC BUDGET FOR ENTIRE MODEL AT END OF TIME STEP    2, STRESS PERIOD   3
  ------------------------------------------------------------------------------

     CUMULATIVE VOLUMES      L**3       RATES FOR THIS TIME STEP      L**3/T
     ------------------                 ------------------------

           IN:                                      IN:
           ---                                      ---
             STORAGE =       1.0477E-08               STORAGE =           0.0000
       CONSTANT HEAD =           0.0000         CONSTANT HEAD =           0.0000
               WELLS =           0.0000                 WELLS =           0.0000
     HEAD DEP BOUNDS =       68630.1328       HEAD DEP BOUNDS =         666.3123

            TOTAL IN =       68630.1328              TOTAL IN =         666.3123

          OUT:                                     OUT:
          ----                                     ----
             STORAGE =       5.2387E-08               STORAGE =           0.0000
       CONSTANT HEAD =           0.0000         CONSTANT HEAD =           0.0000
               WELLS =           0.0000                 WELLS =           0.0000
     HEAD DEP BOUNDS =       68624.6484       HEAD DEP BOUNDS =         666.2595

           TOTAL OUT =       68624.6484             TOTAL OUT =         666.2595

            IN - OUT =           5.4844              IN - OUT =       5.2795E-02

 PERCENT DISCREPANCY =           0.01     PERCENT DISCREPANCY =           0.01






         TIME SUMMARY AT END OF TIME STEP    2 IN STRESS PERIOD    3
                    SECONDS     MINUTES      HOURS       DAYS        YEARS
                    -----------------------------------------------------------
   TIME STEP LENGTH  86400.      1440.0      24.000      1.0000     2.73785E-03
 STRESS PERIOD TIME 1.72800E+05  2880.0      48.000      2.0000     5.47570E-03
         TOTAL TIME 8.89920E+06 1.48320E+05  2472.0      103.00     0.28200    
1
 
 SOLVING FOR HEAD 

 OUTPUT CONTROL FOR STRESS PERIOD    3   TIME STEP    3
    SAVE HEAD FOR ALL LAYERS
    SAVE DRAWDOWN FOR ALL LAYERS
    SAVE BUDGET
    PRINT HEAD FOR ALL LAYERS
    PRINT BUDGET
 UBDSV1 SAVING "         STORAGE" ON UNIT  53 AT TIME STEP  3, STRESS PERIOD   3
 UBDSV2 SAVING "   CONSTANT HEAD" ON UNIT  53 AT TIME STEP  3, STRESS PERIOD   3
 UBDSV1 SAVING "FLOW RIGHT FACE " ON UNIT  53 AT TIME STEP  3, STRESS PERIOD   3
 UBDSV1 SAVING "FLOW FRONT FACE " ON UNIT  53 AT TIME STEP  3, STRESS PERIOD   3
 UBDSV1 SAVING "FLOW LOWER FACE " ON UNIT  53 AT TIME STEP  3, STRESS PERIOD   3
1
              HEAD IN LAYER   1 AT END OF TIME STEP   3 IN STRESS PERIOD    3
  ---------------------------------------------------------------------------

            1           2           3           4           5           6           7           8           9          10
 ........................................................................................................................
   1    9.997       8.887       7.776       6.666       5.555       4.445       3.335       2.224       1.114      3.3313E-03
   2    9.997       8.887       7.776       6.666       5.555       4.445       3.335       2.224       1.114      3.3313E-03
   3    9.997       8.887       7.776       6.666       5.555       4.445       3.335       2.224       1.114      3.3313E-03
   4    9.997       8.887       7.776       6.666       5.555       4.445       3.335       2.224       1.114      3.3313E-03
   5    9.997       8.887       7.776       6.666       5.555       4.445       3.335       2.224       1.114      3.3313E-03
   6    9.997       8.887       7.776       6.666       5.555       4.445       3.335       2.224       1.114      3.3313E-03
   7    9.997       8.887       7.776       6.666       5.555       4.445       3.335       2.224       1.114      3.3313E-03
   8    9.997       8.887       7.776       6.666       5.555       4.445       3.335       2.224       1.114      3.3313E-03
   9    9.997       8.887       7.776       6.666       5.555       4.445       3.335       2.224       1.114      3.3313E-03
  10    9.997       8.887       7.776       6.666       5.555       4.445       3.335       2.224       1.114      3.3313E-03
1
              HEAD IN LAYER   2 AT END OF TIME STEP   3 IN STRESS PERIOD    3
  ---------------------------------------------------------------------------

            1           2           3           4           5           6           7           8           9          10
 ........................................................................................................................
   1    9.997       8.887       7.776       6.666       5.555       4.445       3.335       2.224       1.114      3.3313E-03
   2    9.997       8.887       7.776       6.666       5.555       4.445       3.335       2.224       1.114      3.3313E-03
   3    9.997       8.887       7.776       6.666       5.555       4.445       3.335       2.224       1.114      3.3313E-03
   4    9.997       8.887       7.776       6.666       5.555       4.445       3.335       2.224       1.114      3.3313E-03
   5    9.997       8.887       7.776       6.666       5.555       4.445       3.335       2.224       1.114      3.3313E-03
   6    9.997       8.887       7.776       6.666       5.555       4.445       3.335       2.224       1.114      3.3313E-03
   7    9.997       8.887       7.776       6.666       5.555       4.445       3.335       2.224       1.114      3.3313E-03
   8    9.997       8.887       7.776       6.666       5.555       4.445       3.335       2.224       1.114      3.3313E-03
   9    9.997       8.887       7.776       6.666       5.555       4.445       3.335       2.224       1.114      3.3313E-03
  10    9.997       8.887       7.776       6.666       5.555       4.445       3.335       2.224       1.114      3.3313E-03
1
              HEAD IN LAYER   3 AT END OF TIME STEP   3 IN STRESS PERIOD    3
  ---------------------------------------------------------------------------

            1           2           3           4           5           6           7           8           9          10
 ........................................................................................................................
   1    9.997       8.887       7.776       6.666       5.555       4.445       3.335       2.224       1.114      3.3313E-03
   2    9.997       8.887       7.776       6.666       5.555       4.445       3.335       2.224       1.114      3.3313E-03
   3    9.997       8.887       7.776       6.666       5.555       4.445       3.335       2.224       1.114      3.3313E-03
   4    9.997       8.887       7.776       6.666       5.555       4.445       3.335       2.224       1.114      3.3313E-03
   5    9.997       8.887       7.776       6.666       5.555       4.445       3.335       2.224       1.114      3.3313E-03
   6    9.997       8.887       7.776       6.666       5.555       4.445       3.335       2.224       1.114      3.3313E-03
   7    9.997       8.887       7.776       6.666       5.555       4.445       3.335       2.224       1.114      3.3313E-03
   8    9.997       8.887       7.776       6.666       5.555       4.445       3.335       2.224       1.114      3.3313E-03
   9    9.997       8.887       7.776       6.666       5.555       4.445       3.335       2.224       1.114      3.3313E-03
  10    9.997       8.887       7.776       6.666       5.555       4.445       3.335       2.224       1.114      3.3313E-03
1
              HEAD IN LAYER   4 AT END OF TIME STEP   3 IN STRESS PERIOD    3
  ---------------------------------------------------------------------------

            1           2           3           4           5           6           7           8           9          10
 ........................................................................................................................
   1    9.997       8.887       7.776       6.666       5.555       4.445       3.335       2.224       1.114      3.3313E-03
   2    9.997       8.887       7.776       6.666       5.555       4.445       3.335       2.224       1.114      3.3313E-03
   3    9.997       8.887       7.776       6.666       5.555       4.445       3.335       2.224       1.114      3.3313E-03
   4    9.997       8.887       7.776       6.666       5.555       4.445       3.335       2.224       1.114      3.3313E-03
   5    9.997       8.887       7.776       6.666       5.555       4.445       3.335       2.224       1.114      3.3313E-03
   6    9.997       8.887       7.776       6.666       5.555       4.445       3.335       2.224       1.114      3.3313E-03
   7    9.997       8.887       7.776       6.666       5.555       4.445       3.335       2.224       1.114      3.3313E-03
   8    9.997       8.887       7.776       6.666       5.555       4.445       3.335       2.224       1.114      3.3313E-03
   9    9.997       8.887       7.776       6.666       5.555       4.445       3.335       2.224       1.114      3.3313E-03
  10    9.997       8.887       7.776       6.666       5.555       4.445       3.335       2.224       1.114      3.3313E-03

 HEAD WILL BE SAVED ON UNIT   51 AT END OF TIME STEP    3, STRESS PERIOD    3

 DRAWDOWN WILL BE SAVED ON UNIT   52 AT END OF TIME STEP    3, STRESS PERIOD    3
1
  VOLUMETRIC BUDGET FOR ENTIRE MODEL AT END OF TIME STEP    3, STRESS PERIOD   3
  ------------------------------------------------------------------------------

     CUMULATIVE VOLUMES      L**3       RATES FOR THIS TIME STEP      L**3/T
     ------------------                 ------------------------

           IN:                                      IN:
           ---                                      ---
             STORAGE =       1.0477E-08               STORAGE =           0.0000
       CONSTANT HEAD =           0.0000         CONSTANT HEAD =           0.0000
               WELLS =           0.0000                 WELLS =           0.0000
     HEAD DEP BOUNDS =       69296.4453       HEAD DEP BOUNDS =         666.3123

            TOTAL IN =       69296.4453              TOTAL IN =         666.3123

          OUT:                                     OUT:
          ----                                     ----
             STORAGE =       5.2387E-08               STORAGE =           0.0000
       CONSTANT HEAD =           0.0000         CONSTANT HEAD =           0.0000
               WELLS =           0.0000                 WELLS =           0.0000
     HEAD DEP BOUNDS =       69290.9062       HEAD DEP BOUNDS =         666.2595

           TOTAL OUT =       69290.9062             TOTAL OUT =         666.2595

            IN - OUT =           5.5391              IN - OUT =       5.2795E-02

 PERCENT DISCREPANCY =           0.01     PERCENT DISCREPANCY =           0.01






         TIME SUMMARY AT END OF TIME STEP    3 IN STRESS PERIOD    3
                    SECONDS     MINUTES      HOURS       DAYS        YEARS
                    -----------------------------------------------------------
   TIME STEP LENGTH  86400.      1440.0      24.000      1.0000     2.73785E-03
 STRESS PERIOD TIME 2.59200E+05  4320.0      72.000      3.0000     8.21355E-03
         TOTAL TIME 8.98560E+06 1.49760E+05  2496.0      104.00     0.28474    
1
 
 SOLVING FOR HEAD 

 OUTPUT CONTROL FOR STRESS PERIOD    3   TIME STEP    4
    SAVE HEAD FOR ALL LAYERS
    SAVE DRAWDOWN FOR ALL LAYERS
    SAVE BUDGET
    PRINT HEAD FOR ALL LAYERS
    PRINT BUDGET
 UBDSV1 SAVING "         STORAGE" ON UNIT  53 AT TIME STEP  4, STRESS PERIOD   3
 UBDSV2 SAVING "   CONSTANT HEAD" ON UNIT  53 AT TIME STEP  4, STRESS PERIOD   3
 UBDSV1 SAVING "FLOW RIGHT FACE " ON UNIT  53 AT TIME STEP  4, STRESS PERIOD   3
 UBDSV1 SAVING "FLOW FRONT FACE " ON UNIT  53 AT TIME STEP  4, STRESS PERIOD   3
 UBDSV1 SAVING "FLOW LOWER FACE " ON UNIT  53 AT TIME STEP  4, STRESS PERIOD   3
1
              HEAD IN LAYER   1 AT END OF TIME STEP   4 IN STRESS PERIOD    3
  ---------------------------------------------------------------------------

            1           2           3           4           5           6           7           8           9          10
 ........................................................................................................................
   1    9.997       8.887       7.776       6.666       5.555       4.445       3.335       2.224       1.114      3.3313E-03
   2    9.997       8.887       7.776       6.666       5.555       4.445       3.335       2.224       1.114      3.3313E-03
   3    9.997       8.887       7.776       6.666       5.555       4.445       3.335       2.224       1.114      3.3313E-03
   4    9.997       8.887       7.776       6.666       5.555       4.445       3.335       2.224       1.114      3.3313E-03
   5    9.997       8.887       7.776       6.666       5.555       4.445       3.335       2.224       1.114      3.3313E-03
   6    9.997       8.887       7.776       6.666       5.555       4.445       3.335       2.224       1.114      3.3313E-03
   7    9.997       8.887       7.776       6.666       5.555       4.445       3.335       2.224       1.114      3.3313E-03
   8    9.997       8.887       7.776       6.666       5.555       4.445       3.335       2.224       1.114      3.3313E-03
   9    9.997       8.887       7.776       6.666       5.555       4.445       3.335       2.224       1.114      3.3313E-03
  10    9.997       8.887       7.776       6.666       5.555       4.445       3.335       2.224       1.114      3.3313E-03
1
              HEAD IN LAYER   2 AT END OF TIME STEP   4 IN STRESS PERIOD    3
  ---------------------------------------------------------------------------

            1           2           3           4           5           6           7           8           9          10
 ........................................................................................................................
   1    9.997       8.887       7.776       6.666       5.555       4.445       3.335       2.224       1.114      3.3313E-03
   2    9.997       8.887       7.776       6.666       5.555       4.445       3.335       2.224       1.114      3.3313E-03
   3    9.997       8.887       7.776       6.666       5.555       4.445       3.335       2.224       1.114      3.3313E-03
   4    9.997       8.887       7.776       6.666       5.555       4.445       3.335       2.224       1.114      3.3313E-03
   5    9.997       8.887       7.776       6.666       5.555       4.445       3.335       2.224       1.114      3.3313E-03
   6    9.997       8.887       7.776       6.666       5.555       4.445       3.335       2.224       1.114      3.3313E-03
   7    9.997       8.887       7.776       6.666       5.555       4.445       3.335       2.224       1.114      3.3313E-03
   8    9.997       8.887       7.776       6.666       5.555       4.445       3.335       2.224       1.114      3.3313E-03
   9    9.997       8.887       7.776       6.666       5.555       4.445       3.335       2.224       1.114      3.3313E-03
  10    9.997       8.887       7.776       6.666       5.555       4.445       3.335       2.224       1.114      3.3313E-03
1
              HEAD IN LAYER   3 AT END OF TIME STEP   4 IN STRESS PERIOD    3
  ---------------------------------------------------------------------------

            1           2           3           4           5           6           7           8           9          10
 ........................................................................................................................
   1    9.997       8.887       7.776       6.666       5.555       4.445       3.335       2.224       1.114      3.3313E-03
   2    9.997       8.887       7.776       6.666       5.555       4.445       3.335       2.224       1.114      3.3313E-03
   3    9.997       8.887       7.776       6.666       5.555       4.445       3.335       2.224       1.114      3.3313E-03
   4    9.997       8.887       7.776       6.666       5.555       4.445       3.335       2.224       1.114      3.3313E-03
   5    9.997       8.887       7.776       6.666       5.555       4.445       3.335       2.224       1.114      3.3313E-03
   6    9.997       8.887       7.776       6.666       5.555       4.445       3.335       2.224       1.114      3.3313E-03
   7    9.997       8.887       7.776       6.666       5.555       4.445       3.335       2.224       1.114      3.3313E-03
   8    9.997       8.887       7.776       6.666       5.555       4.445       3.335       2.224       1.114      3.3313E-03
   9    9.997       8.887       7.776       6.666       5.555       4.445       3.335       2.224       1.114      3.3313E-03
  10    9.997       8.887       7.776       6.666       5.555       4.445       3.335       2.224       1.114      3.3313E-03
1
              HEAD IN LAYER   4 AT END OF TIME STEP   4 IN STRESS PERIOD    3
  ---------------------------------------------------------------------------

            1           2           3           4           5           6           7           8           9          10
 ........................................................................................................................
   1    9.997       8.887       7.776       6.666       5.555       4.445       3.335       2.224       1.114      3.3313E-03
   2    9.997       8.887       7.776       6.666       5.555       4.445       3.335       2.224       1.114      3.3313E-03
   3    9.997       8.887       7.776       6.666       5.555       4.445       3.335       2.224       1.114      3.3313E-03
   4    9.997       8.887       7.776       6.666       5.555       4.445       3.335       2.224       1.114      3.3313E-03
   5    9.997       8.887       7.776       6.666       5.555       4.445       3.335       2.224       1.114      3.3313E-03
   6    9.997       8.887       7.776       6.666       5.555       4.445       3.335       2.224       1.114      3.3313E-03
   7    9.997       8.887       7.776       6.666       5.555       4.445       3.335       2.224       1.114      3.3313E-03
   8    9.997       8.887       7.776       6.666       5.555       4.445       3.335       2.224       1.114      3.3313E-03
   9    9.997       8.887       7.776       6.666       5.555       4.445       3.335       2.224       1.114      3.3313E-03
  10    9.997       8.887       7.776       6.666       5.555       4.445       3.335       2.224       1.114      3.3313E-03

 HEAD WILL BE SAVED ON UNIT   51 AT END OF TIME STEP    4, STRESS PERIOD    3

 DRAWDOWN WILL BE SAVED ON UNIT   52 AT END OF TIME STEP    4, STRESS PERIOD    3
1
  VOLUMETRIC BUDGET FOR ENTIRE MODEL AT END OF TIME STEP    4, STRESS PERIOD   3
  ------------------------------------------------------------------------------

     CUMULATIVE VOLUMES      L**3       RATES FOR THIS TIME STEP      L**3/T
     ------------------                 ------------------------

           IN:                                      IN:
           ---                                      ---
             STORAGE =       1.0477E-08               STORAGE =           0.0000
       CONSTANT HEAD =           0.0000         CONSTANT HEAD =           0.0000
               WELLS =           0.0000                 WELLS =           0.0000
     HEAD DEP BOUNDS =       69962.7578       HEAD DEP BOUNDS =         666.3123

            TOTAL IN =       69962.7578              TOTAL IN =         666.3123

          OUT:                                     OUT:
          ----                                     ----
             STORAGE =       5.2387E-08               STORAGE =           0.0000
       CONSTANT HEAD =           0.0000         CONSTANT HEAD =           0.0000
               WELLS =           0.0000                 WELLS =           0.0000
     HEAD DEP BOUNDS =       69957.1641       HEAD DEP BOUNDS =         666.2595

           TOTAL OUT =       69957.1641             TOTAL OUT =         666.2595

            IN - OUT =           5.5938              IN - OUT =       5.2795E-02

 PERCENT DISCREPANCY =           0.01     PERCENT DISCREPANCY =           0.01






         TIME SUMMARY AT END OF TIME STEP    4 IN STRESS PERIOD    3
                    SECONDS     MINUTES      HOURS       DAYS        YEARS
                    -----------------------------------------------------------
   TIME STEP LENGTH  86400.      1440.0      24.000      1.0000     2.73785E-03
 STRESS PERIOD TIME 3.45600E+05  5760.0      96.000      4.0000     1.09514E-02
         TOTAL TIME 9.07200E+06 1.51200E+05  2520.0      105.00     0.28747    
1
 
 SOLVING FOR HEAD 

 OUTPUT CONTROL FOR STRESS PERIOD    3   TIME STEP    5
    SAVE HEAD FOR ALL LAYERS
    SAVE DRAWDOWN FOR ALL LAYERS
    SAVE BUDGET
    PRINT HEAD FOR ALL LAYERS
    PRINT BUDGET
 UBDSV1 SAVING "         STORAGE" ON UNIT  53 AT TIME STEP  5, STRESS PERIOD   3
 UBDSV2 SAVING "   CONSTANT HEAD" ON UNIT  53 AT TIME STEP  5, STRESS PERIOD   3
 UBDSV1 SAVING "FLOW RIGHT FACE " ON UNIT  53 AT TIME STEP  5, STRESS PERIOD   3
 UBDSV1 SAVING "FLOW FRONT FACE " ON UNIT  53 AT TIME STEP  5, STRESS PERIOD   3
 UBDSV1 SAVING "FLOW LOWER FACE " ON UNIT  53 AT TIME STEP  5, STRESS PERIOD   3
1
              HEAD IN LAYER   1 AT END OF TIME STEP   5 IN STRESS PERIOD    3
  ---------------------------------------------------------------------------

            1           2           3           4           5           6           7           8           9          10
 ........................................................................................................................
   1    9.997       8.887       7.776       6.666       5.555       4.445       3.335       2.224       1.114      3.3313E-03
   2    9.997       8.887       7.776       6.666       5.555       4.445       3.335       2.224       1.114      3.3313E-03
   3    9.997       8.887       7.776       6.666       5.555       4.445       3.335       2.224       1.114      3.3313E-03
   4    9.997       8.887       7.776       6.666       5.555       4.445       3.335       2.224       1.114      3.3313E-03
   5    9.997       8.887       7.776       6.666       5.555       4.445       3.335       2.224       1.114      3.3313E-03
   6    9.997       8.887       7.776       6.666       5.555       4.445       3.335       2.224       1.114      3.3313E-03
   7    9.997       8.887       7.776       6.666       5.555       4.445       3.335       2.224       1.114      3.3313E-03
   8    9.997       8.887       7.776       6.666       5.555       4.445       3.335       2.224       1.114      3.3313E-03
   9    9.997       8.887       7.776       6.666       5.555       4.445       3.335       2.224       1.114      3.3313E-03
  10    9.997       8.887       7.776       6.666       5.555       4.445       3.335       2.224       1.114      3.3313E-03
1
              HEAD IN LAYER   2 AT END OF TIME STEP   5 IN STRESS PERIOD    3
  ---------------------------------------------------------------------------

            1           2           3           4           5           6           7           8           9          10
 ........................................................................................................................
   1    9.997       8.887       7.776       6.666       5.555       4.445       3.335       2.224       1.114      3.3313E-03
   2    9.997       8.887       7.776       6.666       5.555       4.445       3.335       2.224       1.114      3.3313E-03
   3    9.997       8.887       7.776       6.666       5.555       4.445       3.335       2.224       1.114      3.3313E-03
   4    9.997       8.887       7.776       6.666       5.555       4.445       3.335       2.224       1.114      3.3313E-03
   5    9.997       8.887       7.776       6.666       5.555       4.445       3.335       2.224       1.114      3.3313E-03
   6    9.997       8.887       7.776       6.666       5.555       4.445       3.335       2.224       1.114      3.3313E-03
   7    9.997       8.887       7.776       6.666       5.555       4.445       3.335       2.224       1.114      3.3313E-03
   8    9.997       8.887       7.776       6.666       5.555       4.445       3.335       2.224       1.114      3.3313E-03
   9    9.997       8.887       7.776       6.666       5.555       4.445       3.335       2.224       1.114      3.3313E-03
  10    9.997       8.887       7.776       6.666       5.555       4.445       3.335       2.224       1.114      3.3313E-03
1
              HEAD IN LAYER   3 AT END OF TIME STEP   5 IN STRESS PERIOD    3
  ---------------------------------------------------------------------------

            1           2           3           4           5           6           7           8           9          10
 ........................................................................................................................
   1    9.997       8.887       7.776       6.666       5.555       4.445       3.335       2.224       1.114      3.3313E-03
   2    9.997       8.887       7.776       6.666       5.555       4.445       3.335       2.224       1.114      3.3313E-03
   3    9.997       8.887       7.776       6.666       5.555       4.445       3.335       2.224       1.114      3.3313E-03
   4    9.997       8.887       7.776       6.666       5.555       4.445       3.335       2.224       1.114      3.3313E-03
   5    9.997       8.887       7.776       6.666       5.555       4.445       3.335       2.224       1.114      3.3313E-03
   6    9.997       8.887       7.776       6.666       5.555       4.445       3.335       2.224       1.114      3.3313E-03
   7    9.997       8.887       7.776       6.666       5.555       4.445       3.335       2.224       1.114      3.3313E-03
   8    9.997       8.887       7.776       6.666       5.555       4.445       3.335       2.224       1.114      3.3313E-03
   9    9.997       8.887       7.776       6.666       5.555       4.445       3.335       2.224       1.114      3.3313E-03
  10    9.997       8.887       7.776       6.666       5.555       4.445       3.335       2.224       1.114      3.3313E-03
1
              HEAD IN LAYER   4 AT END OF TIME STEP   5 IN STRESS PERIOD    3
  ---------------------------------------------------------------------------

            1           2           3           4           5           6           7           8           9          10
 ........................................................................................................................
   1    9.997       8.887       7.776       6.666       5.555       4.445       3.335       2.224       1.114      3.3313E-03
   2    9.997       8.887       7.776       6.666       5.555       4.445       3.335       2.224       1.114      3.3313E-03
   3    9.997       8.887       7.776       6.666       5.555       4.445       3.335       2.224       1.114      3.3313E-03
   4    9.997       8.887       7.776       6.666       5.555       4.445       3.335       2.224       1.114      3.3313E-03
   5    9.997       8.887       7.776       6.666       5.555       4.445       3.335       2.224       1.114      3.3313E-03
   6    9.997       8.887       7.776       6.666       5.555       4.445       3.335       2.224       1.114      3.3313E-03
   7    9.997       8.887       7.776       6.666       5.555       4.445       3.335       2.224       1.114      3.3313E-03
   8    9.997       8.887       7.776       6.666       5.555       4.445       3.335       2.224       1.114      3.3313E-03
   9    9.997       8.887       7.776       6.666       5.555       4.445       3.335       2.224       1.114      3.3313E-03
  10    9.997       8.887       7.776       6.666       5.555       4.445       3.335       2.224       1.114      3.3313E-03

 HEAD WILL BE SAVED ON UNIT   51 AT END OF TIME STEP    5, STRESS PERIOD    3

 DRAWDOWN WILL BE SAVED ON UNIT   52 AT END OF TIME STEP    5, STRESS PERIOD    3
1
  VOLUMETRIC BUDGET FOR ENTIRE MODEL AT END OF TIME STEP    5, STRESS PERIOD   3
  ------------------------------------------------------------------------------

     CUMULATIVE VOLUMES      L**3       RATES FOR THIS TIME STEP      L**3/T
     ------------------                 ------------------------

           IN:                                      IN:
           ---                                      ---
             STORAGE =       1.0477E-08               STORAGE =           0.0000
       CONSTANT HEAD =           0.0000         CONSTANT HEAD =           0.0000
               WELLS =           0.0000                 WELLS =           0.0000
     HEAD DEP BOUNDS =       70629.0703       HEAD DEP BOUNDS =         666.3123

            TOTAL IN =       70629.0703              TOTAL IN =         666.3123

          OUT:                                     OUT:
          ----                                     ----
             STORAGE =       5.2387E-08               STORAGE =           0.0000
       CONSTANT HEAD =           0.0000         CONSTANT HEAD =           0.0000
               WELLS =           0.0000                 WELLS =           0.0000
     HEAD DEP BOUNDS =       70623.4219       HEAD DEP BOUNDS =         666.2595

           TOTAL OUT =       70623.4219             TOTAL OUT =         666.2595

            IN - OUT =           5.6484              IN - OUT =       5.2795E-02

 PERCENT DISCREPANCY =           0.01     PERCENT DISCREPANCY =           0.01






         TIME SUMMARY AT END OF TIME STEP    5 IN STRESS PERIOD    3
                    SECONDS     MINUTES      HOURS       DAYS        YEARS
                    -----------------------------------------------------------
   TIME STEP LENGTH  86400.      1440.0      24.000      1.0000     2.73785E-03
 STRESS PERIOD TIME 4.32000E+05  7200.0      120.00      5.0000     1.36893E-02
         TOTAL TIME 9.15840E+06 1.52640E+05  2544.0      106.00     0.29021    
1
 
 SOLVING FOR HEAD 

 OUTPUT CONTROL FOR STRESS PERIOD    3   TIME STEP    6
    SAVE HEAD FOR ALL LAYERS
    SAVE DRAWDOWN FOR ALL LAYERS
    SAVE BUDGET
    PRINT HEAD FOR ALL LAYERS
    PRINT BUDGET
 UBDSV1 SAVING "         STORAGE" ON UNIT  53 AT TIME STEP  6, STRESS PERIOD   3
 UBDSV2 SAVING "   CONSTANT HEAD" ON UNIT  53 AT TIME STEP  6, STRESS PERIOD   3
 UBDSV1 SAVING "FLOW RIGHT FACE " ON UNIT  53 AT TIME STEP  6, STRESS PERIOD   3
 UBDSV1 SAVING "FLOW FRONT FACE " ON UNIT  53 AT TIME STEP  6, STRESS PERIOD   3
 UBDSV1 SAVING "FLOW LOWER FACE " ON UNIT  53 AT TIME STEP  6, STRESS PERIOD   3
1
              HEAD IN LAYER   1 AT END OF TIME STEP   6 IN STRESS PERIOD    3
  ---------------------------------------------------------------------------

            1           2           3           4           5           6           7           8           9          10
 ........................................................................................................................
   1    9.997       8.887       7.776       6.666       5.555       4.445       3.335       2.224       1.114      3.3313E-03
   2    9.997       8.887       7.776       6.666       5.555       4.445       3.335       2.224       1.114      3.3313E-03
   3    9.997       8.887       7.776       6.666       5.555       4.445       3.335       2.224       1.114      3.3313E-03
   4    9.997       8.887       7.776       6.666       5.555       4.445       3.335       2.224       1.114      3.3313E-03
   5    9.997       8.887       7.776       6.666       5.555       4.445       3.335       2.224       1.114      3.3313E-03
   6    9.997       8.887       7.776       6.666       5.555       4.445       3.335       2.224       1.114      3.3313E-03
   7    9.997       8.887       7.776       6.666       5.555       4.445       3.335       2.224       1.114      3.3313E-03
   8    9.997       8.887       7.776       6.666       5.555       4.445       3.335       2.224       1.114      3.3313E-03
   9    9.997       8.887       7.776       6.666       5.555       4.445       3.335       2.224       1.114      3.3313E-03
  10    9.997       8.887       7.776       6.666       5.555       4.445       3.335       2.224       1.114      3.3313E-03
1
              HEAD IN LAYER   2 AT END OF TIME STEP   6 IN STRESS PERIOD    3
  ---------------------------------------------------------------------------

            1           2           3           4           5           6           7           8           9          10
 ........................................................................................................................
   1    9.997       8.887       7.776       6.666       5.555       4.445       3.335       2.224       1.114      3.3313E-03
   2    9.997       8.887       7.776       6.666       5.555       4.445       3.335       2.224       1.114      3.3313E-03
   3    9.997       8.887       7.776       6.666       5.555       4.445       3.335       2.224       1.114      3.3313E-03
   4    9.997       8.887       7.776       6.666       5.555       4.445       3.335       2.224       1.114      3.3313E-03
   5    9.997       8.887       7.776       6.666       5.555       4.445       3.335       2.224       1.114      3.3313E-03
   6    9.997       8.887       7.776       6.666       5.555       4.445       3.335       2.224       1.114      3.3313E-03
   7    9.997       8.887       7.776       6.666       5.555       4.445       3.335       2.224       1.114      3.3313E-03
   8    9.997       8.887       7.776       6.666       5.555       4.445       3.335       2.224       1.114      3.3313E-03
   9    9.997       8.887       7.776       6.666       5.555       4.445       3.335       2.224       1.114      3.3313E-03
  10    9.997       8.887       7.776       6.666       5.555       4.445       3.335       2.224       1.114      3.3313E-03
1
              HEAD IN LAYER   3 AT END OF TIME STEP   6 IN STRESS PERIOD    3
  ---------------------------------------------------------------------------

            1           2           3           4           5           6           7           8           9          10
 ........................................................................................................................
   1    9.997       8.887       7.776       6.666       5.555       4.445       3.335       2.224       1.114      3.3313E-03
   2    9.997       8.887       7.776       6.666       5.555       4.445       3.335       2.224       1.114      3.3313E-03
   3    9.997       8.887       7.776       6.666       5.555       4.445       3.335       2.224       1.114      3.3313E-03
   4    9.997       8.887       7.776       6.666       5.555       4.445       3.335       2.224       1.114      3.3313E-03
   5    9.997       8.887       7.776       6.666       5.555       4.445       3.335       2.224       1.114      3.3313E-03
   6    9.997       8.887       7.776       6.666       5.555       4.445       3.335       2.224       1.114      3.3313E-03
   7    9.997       8.887       7.776       6.666       5.555       4.445       3.335       2.224       1.114      3.3313E-03
   8    9.997       8.887       7.776       6.666       5.555       4.445       3.335       2.224       1.114      3.3313E-03
   9    9.997       8.887       7.776       6.666       5.555       4.445       3.335       2.224       1.114      3.3313E-03
  10    9.997       8.887       7.776       6.666       5.555       4.445       3.335       2.224       1.114      3.3313E-03
1
              HEAD IN LAYER   4 AT END OF TIME STEP   6 IN STRESS PERIOD    3
  ---------------------------------------------------------------------------

            1           2           3           4           5           6           7           8           9          10
 ........................................................................................................................
   1    9.997       8.887       7.776       6.666       5.555       4.445       3.335       2.224       1.114      3.3313E-03
   2    9.997       8.887       7.776       6.666       5.555       4.445       3.335       2.224       1.114      3.3313E-03
   3    9.997       8.887       7.776       6.666       5.555       4.445       3.335       2.224       1.114      3.3313E-03
   4    9.997       8.887       7.776       6.666       5.555       4.445       3.335       2.224       1.114      3.3313E-03
   5    9.997       8.887       7.776       6.666       5.555       4.445       3.335       2.224       1.114      3.3313E-03
   6    9.997       8.887       7.776       6.666       5.555       4.445       3.335       2.224       1.114      3.3313E-03
   7    9.997       8.887       7.776       6.666       5.555       4.445       3.335       2.224       1.114      3.3313E-03
   8    9.997       8.887       7.776       6.666       5.555       4.445       3.335       2.224       1.114      3.3313E-03
   9    9.997       8.887       7.776       6.666       5.555       4.445       3.335       2.224       1.114      3.3313E-03
  10    9.997       8.887       7.776       6.666       5.555       4.445       3.335       2.224       1.114      3.3313E-03

 HEAD WILL BE SAVED ON UNIT   51 AT END OF TIME STEP    6, STRESS PERIOD    3

 DRAWDOWN WILL BE SAVED ON UNIT   52 AT END OF TIME STEP    6, STRESS PERIOD    3
1
  VOLUMETRIC BUDGET FOR ENTIRE MODEL AT END OF TIME STEP    6, STRESS PERIOD   3
  ------------------------------------------------------------------------------

     CUMULATIVE VOLUMES      L**3       RATES FOR THIS TIME STEP      L**3/T
     ------------------                 ------------------------

           IN:                                      IN:
           ---                                      ---
             STORAGE =       1.0477E-08               STORAGE =           0.0000
       CONSTANT HEAD =           0.0000         CONSTANT HEAD =           0.0000
               WELLS =           0.0000                 WELLS =           0.0000
     HEAD DEP BOUNDS =       71295.3828       HEAD DEP BOUNDS =         666.3123

            TOTAL IN =       71295.3828              TOTAL IN =         666.3123

          OUT:                                     OUT:
          ----                                     ----
             STORAGE =       5.2387E-08               STORAGE =           0.0000
       CONSTANT HEAD =           0.0000         CONSTANT HEAD =           0.0000
               WELLS =           0.0000                 WELLS =           0.0000
     HEAD DEP BOUNDS =       71289.6797       HEAD DEP BOUNDS =         666.2595

           TOTAL OUT =       71289.6797             TOTAL OUT =         666.2595

            IN - OUT =           5.7031              IN - OUT =       5.2795E-02

 PERCENT DISCREPANCY =           0.01     PERCENT DISCREPANCY =           0.01






         TIME SUMMARY AT END OF TIME STEP    6 IN STRESS PERIOD    3
                    SECONDS     MINUTES      HOURS       DAYS        YEARS
                    -----------------------------------------------------------
   TIME STEP LENGTH  86400.      1440.0      24.000      1.0000     2.73785E-03
 STRESS PERIOD TIME 5.18400E+05  8640.0      144.00      6.0000     1.64271E-02
         TOTAL TIME 9.24480E+06 1.54080E+05  2568.0      107.00     0.29295    
1
 
 SOLVING FOR HEAD 

 OUTPUT CONTROL FOR STRESS PERIOD    3   TIME STEP    7
    SAVE HEAD FOR ALL LAYERS
    SAVE DRAWDOWN FOR ALL LAYERS
    SAVE BUDGET
    PRINT HEAD FOR ALL LAYERS
    PRINT BUDGET
 UBDSV1 SAVING "         STORAGE" ON UNIT  53 AT TIME STEP  7, STRESS PERIOD   3
 UBDSV2 SAVING "   CONSTANT HEAD" ON UNIT  53 AT TIME STEP  7, STRESS PERIOD   3
 UBDSV1 SAVING "FLOW RIGHT FACE " ON UNIT  53 AT TIME STEP  7, STRESS PERIOD   3
 UBDSV1 SAVING "FLOW FRONT FACE " ON UNIT  53 AT TIME STEP  7, STRESS PERIOD   3
 UBDSV1 SAVING "FLOW LOWER FACE " ON UNIT  53 AT TIME STEP  7, STRESS PERIOD   3
1
              HEAD IN LAYER   1 AT END OF TIME STEP   7 IN STRESS PERIOD    3
  ---------------------------------------------------------------------------

            1           2           3           4           5           6           7           8           9          10
 ........................................................................................................................
   1    9.997       8.887       7.776       6.666       5.555       4.445       3.335       2.224       1.114      3.3313E-03
   2    9.997       8.887       7.776       6.666       5.555       4.445       3.335       2.224       1.114      3.3313E-03
   3    9.997       8.887       7.776       6.666       5.555       4.445       3.335       2.224       1.114      3.3313E-03
   4    9.997       8.887       7.776       6.666       5.555       4.445       3.335       2.224       1.114      3.3313E-03
   5    9.997       8.887       7.776       6.666       5.555       4.445       3.335       2.224       1.114      3.3313E-03
   6    9.997       8.887       7.776       6.666       5.555       4.445       3.335       2.224       1.114      3.3313E-03
   7    9.997       8.887       7.776       6.666       5.555       4.445       3.335       2.224       1.114      3.3313E-03
   8    9.997       8.887       7.776       6.666       5.555       4.445       3.335       2.224       1.114      3.3313E-03
   9    9.997       8.887       7.776       6.666       5.555       4.445       3.335       2.224       1.114      3.3313E-03
  10    9.997       8.887       7.776       6.666       5.555       4.445       3.335       2.224       1.114      3.3313E-03
1
              HEAD IN LAYER   2 AT END OF TIME STEP   7 IN STRESS PERIOD    3
  ---------------------------------------------------------------------------

            1           2           3           4           5           6           7           8           9          10
 ........................................................................................................................
   1    9.997       8.887       7.776       6.666       5.555       4.445       3.335       2.224       1.114      3.3313E-03
   2    9.997       8.887       7.776       6.666       5.555       4.445       3.335       2.224       1.114      3.3313E-03
   3    9.997       8.887       7.776       6.666       5.555       4.445       3.335       2.224       1.114      3.3313E-03
   4    9.997       8.887       7.776       6.666       5.555       4.445       3.335       2.224       1.114      3.3313E-03
   5    9.997       8.887       7.776       6.666       5.555       4.445       3.335       2.224       1.114      3.3313E-03
   6    9.997       8.887       7.776       6.666       5.555       4.445       3.335       2.224       1.114      3.3313E-03
   7    9.997       8.887       7.776       6.666       5.555       4.445       3.335       2.224       1.114      3.3313E-03
   8    9.997       8.887       7.776       6.666       5.555       4.445       3.335       2.224       1.114      3.3313E-03
   9    9.997       8.887       7.776       6.666       5.555       4.445       3.335       2.224       1.114      3.3313E-03
  10    9.997       8.887       7.776       6.666       5.555       4.445       3.335       2.224       1.114      3.3313E-03
1
              HEAD IN LAYER   3 AT END OF TIME STEP   7 IN STRESS PERIOD    3
  ---------------------------------------------------------------------------

            1           2           3           4           5           6           7           8           9          10
 ........................................................................................................................
   1    9.997       8.887       7.776       6.666       5.555       4.445       3.335       2.224       1.114      3.3313E-03
   2    9.997       8.887       7.776       6.666       5.555       4.445       3.335       2.224       1.114      3.3313E-03
   3    9.997       8.887       7.776       6.666       5.555       4.445       3.335       2.224       1.114      3.3313E-03
   4    9.997       8.887       7.776       6.666       5.555       4.445       3.335       2.224       1.114      3.3313E-03
   5    9.997       8.887       7.776       6.666       5.555       4.445       3.335       2.224       1.114      3.3313E-03
   6    9.997       8.887       7.776       6.666       5.555       4.445       3.335       2.224       1.114      3.3313E-03
   7    9.997       8.887       7.776       6.666       5.555       4.445       3.335       2.224       1.114      3.3313E-03
   8    9.997       8.887       7.776       6.666       5.555       4.445       3.335       2.224       1.114      3.3313E-03
   9    9.997       8.887       7.776       6.666       5.555       4.445       3.335       2.224       1.114      3.3313E-03
  10    9.997       8.887       7.776       6.666       5.555       4.445       3.335       2.224       1.114      3.3313E-03
1
              HEAD IN LAYER   4 AT END OF TIME STEP   7 IN STRESS PERIOD    3
  ---------------------------------------------------------------------------

            1           2           3           4           5           6           7           8           9          10
 ........................................................................................................................
   1    9.997       8.887       7.776       6.666       5.555       4.445       3.335       2.224       1.114      3.3313E-03
   2    9.997       8.887       7.776       6.666       5.555       4.445       3.335       2.224       1.114      3.3313E-03
   3    9.997       8.887       7.776       6.666       5.555       4.445       3.335       2.224       1.114      3.3313E-03
   4    9.997       8.887       7.776       6.666       5.555       4.445       3.335       2.224       1.114      3.3313E-03
   5    9.997       8.887       7.776       6.666       5.555       4.445       3.335       2.224       1.114      3.3313E-03
   6    9.997       8.887       7.776       6.666       5.555       4.445       3.335       2.224       1.114      3.3313E-03
   7    9.997       8.887       7.776       6.666       5.555       4.445       3.335       2.224       1.114      3.3313E-03
   8    9.997       8.887       7.776       6.666       5.555       4.445       3.335       2.224       1.114      3.3313E-03
   9    9.997       8.887       7.776       6.666       5.555       4.445       3.335       2.224       1.114      3.3313E-03
  10    9.997       8.887       7.776       6.666       5.555       4.445       3.335       2.224       1.114      3.3313E-03

 HEAD WILL BE SAVED ON UNIT   51 AT END OF TIME STEP    7, STRESS PERIOD    3

 DRAWDOWN WILL BE SAVED ON UNIT   52 AT END OF TIME STEP    7, STRESS PERIOD    3
1
  VOLUMETRIC BUDGET FOR ENTIRE MODEL AT END OF TIME STEP    7, STRESS PERIOD   3
  ------------------------------------------------------------------------------

     CUMULATIVE VOLUMES      L**3       RATES FOR THIS TIME STEP      L**3/T
     ------------------                 ------------------------

           IN:                                      IN:
           ---                                      ---
             STORAGE =       1.0477E-08               STORAGE =           0.0000
       CONSTANT HEAD =           0.0000         CONSTANT HEAD =           0.0000
               WELLS =           0.0000                 WELLS =           0.0000
     HEAD DEP BOUNDS =       71961.6953       HEAD DEP BOUNDS =         666.3123

            TOTAL IN =       71961.6953              TOTAL IN =         666.3123

          OUT:                                     OUT:
          ----                                     ----
             STORAGE =       5.2387E-08               STORAGE =           0.0000
       CONSTANT HEAD =           0.0000         CONSTANT HEAD =           0.0000
               WELLS =           0.0000                 WELLS =           0.0000
     HEAD DEP BOUNDS =       71955.9375       HEAD DEP BOUNDS =         666.2595

           TOTAL OUT =       71955.9375             TOTAL OUT =         666.2595

            IN - OUT =           5.7578              IN - OUT =       5.2795E-02

 PERCENT DISCREPANCY =           0.01     PERCENT DISCREPANCY =           0.01






         TIME SUMMARY AT END OF TIME STEP    7 IN STRESS PERIOD    3
                    SECONDS     MINUTES      HOURS       DAYS        YEARS
                    -----------------------------------------------------------
   TIME STEP LENGTH  86400.      1440.0      24.000      1.0000     2.73785E-03
 STRESS PERIOD TIME 6.04800E+05  10080.      168.00      7.0000     1.91650E-02
         TOTAL TIME 9.33120E+06 1.55520E+05  2592.0      108.00     0.29569    
1
 
 SOLVING FOR HEAD 

 OUTPUT CONTROL FOR STRESS PERIOD    3   TIME STEP    8
    SAVE HEAD FOR ALL LAYERS
    SAVE DRAWDOWN FOR ALL LAYERS
    SAVE BUDGET
    PRINT HEAD FOR ALL LAYERS
    PRINT BUDGET
 UBDSV1 SAVING "         STORAGE" ON UNIT  53 AT TIME STEP  8, STRESS PERIOD   3
 UBDSV2 SAVING "   CONSTANT HEAD" ON UNIT  53 AT TIME STEP  8, STRESS PERIOD   3
 UBDSV1 SAVING "FLOW RIGHT FACE " ON UNIT  53 AT TIME STEP  8, STRESS PERIOD   3
 UBDSV1 SAVING "FLOW FRONT FACE " ON UNIT  53 AT TIME STEP  8, STRESS PERIOD   3
 UBDSV1 SAVING "FLOW LOWER FACE " ON UNIT  53 AT TIME STEP  8, STRESS PERIOD   3
1
              HEAD IN LAYER   1 AT END OF TIME STEP   8 IN STRESS PERIOD    3
  ---------------------------------------------------------------------------

            1           2           3           4           5           6           7           8           9          10
 ........................................................................................................................
   1    9.997       8.887       7.776       6.666       5.555       4.445       3.335       2.224       1.114      3.3313E-03
   2    9.997       8.887       7.776       6.666       5.555       4.445       3.335       2.224       1.114      3.3313E-03
   3    9.997       8.887       7.776       6.666       5.555       4.445       3.335       2.224       1.114      3.3313E-03
   4    9.997       8.887       7.776       6.666       5.555       4.445       3.335       2.224       1.114      3.3313E-03
   5    9.997       8.887       7.776       6.666       5.555       4.445       3.335       2.224       1.114      3.3313E-03
   6    9.997       8.887       7.776       6.666       5.555       4.445       3.335       2.224       1.114      3.3313E-03
   7    9.997       8.887       7.776       6.666       5.555       4.445       3.335       2.224       1.114      3.3313E-03
   8    9.997       8.887       7.776       6.666       5.555       4.445       3.335       2.224       1.114      3.3313E-03
   9    9.997       8.887       7.776       6.666       5.555       4.445       3.335       2.224       1.114      3.3313E-03
  10    9.997       8.887       7.776       6.666       5.555       4.445       3.335       2.224       1.114      3.3313E-03
1
              HEAD IN LAYER   2 AT END OF TIME STEP   8 IN STRESS PERIOD    3
  ---------------------------------------------------------------------------

            1           2           3           4           5           6           7           8           9          10
 ........................................................................................................................
   1    9.997       8.887       7.776       6.666       5.555       4.445       3.335       2.224       1.114      3.3313E-03
   2    9.997       8.887       7.776       6.666       5.555       4.445       3.335       2.224       1.114      3.3313E-03
   3    9.997       8.887       7.776       6.666       5.555       4.445       3.335       2.224       1.114      3.3313E-03
   4    9.997       8.887       7.776       6.666       5.555       4.445       3.335       2.224       1.114      3.3313E-03
   5    9.997       8.887       7.776       6.666       5.555       4.445       3.335       2.224       1.114      3.3313E-03
   6    9.997       8.887       7.776       6.666       5.555       4.445       3.335       2.224       1.114      3.3313E-03
   7    9.997       8.887       7.776       6.666       5.555       4.445       3.335       2.224       1.114      3.3313E-03
   8    9.997       8.887       7.776       6.666       5.555       4.445       3.335       2.224       1.114      3.3313E-03
   9    9.997       8.887       7.776       6.666       5.555       4.445       3.335       2.224       1.114      3.3313E-03
  10    9.997       8.887       7.776       6.666       5.555       4.445       3.335       2.224       1.114      3.3313E-03
1
              HEAD IN LAYER   3 AT END OF TIME STEP   8 IN STRESS PERIOD    3
  ---------------------------------------------------------------------------

            1           2           3           4           5           6           7           8           9          10
 ........................................................................................................................
   1    9.997       8.887       7.776       6.666       5.555       4.445       3.335       2.224       1.114      3.3313E-03
   2    9.997       8.887       7.776       6.666       5.555       4.445       3.335       2.224       1.114      3.3313E-03
   3    9.997       8.887       7.776       6.666       5.555       4.445       3.335       2.224       1.114      3.3313E-03
   4    9.997       8.887       7.776       6.666       5.555       4.445       3.335       2.224       1.114      3.3313E-03
   5    9.997       8.887       7.776       6.666       5.555       4.445       3.335       2.224       1.114      3.3313E-03
   6    9.997       8.887       7.776       6.666       5.555       4.445       3.335       2.224       1.114      3.3313E-03
   7    9.997       8.887       7.776       6.666       5.555       4.445       3.335       2.224       1.114      3.3313E-03
   8    9.997       8.887       7.776       6.666       5.555       4.445       3.335       2.224       1.114      3.3313E-03
   9    9.997       8.887       7.776       6.666       5.555       4.445       3.335       2.224       1.114      3.3313E-03
  10    9.997       8.887       7.776       6.666       5.555       4.445       3.335       2.224       1.114      3.3313E-03
1
              HEAD IN LAYER   4 AT END OF TIME STEP   8 IN STRESS PERIOD    3
  ---------------------------------------------------------------------------

            1           2           3           4           5           6           7           8           9          10
 ........................................................................................................................
   1    9.997       8.887       7.776       6.666       5.555       4.445       3.335       2.224       1.114      3.3313E-03
   2    9.997       8.887       7.776       6.666       5.555       4.445       3.335       2.224       1.114      3.3313E-03
   3    9.997       8.887       7.776       6.666       5.555       4.445       3.335       2.224       1.114      3.3313E-03
   4    9.997       8.887       7.776       6.666       5.555       4.445       3.335       2.224       1.114      3.3313E-03
   5    9.997       8.887       7.776       6.666       5.555       4.445       3.335       2.224       1.114      3.3313E-03
   6    9.997       8.887       7.776       6.666       5.555       4.445       3.335       2.224       1.114      3.3313E-03
   7    9.997       8.887       7.776       6.666       5.555       4.445       3.335       2.224       1.114      3.3313E-03
   8    9.997       8.887       7.776       6.666       5.555       4.445       3.335       2.224       1.114      3.3313E-03
   9    9.997       8.887       7.776       6.666       5.555       4.445       3.335       2.224       1.114      3.3313E-03
  10    9.997       8.887       7.776       6.666       5.555       4.445       3.335       2.224       1.114      3.3313E-03

 HEAD WILL BE SAVED ON UNIT   51 AT END OF TIME STEP    8, STRESS PERIOD    3

 DRAWDOWN WILL BE SAVED ON UNIT   52 AT END OF TIME STEP    8, STRESS PERIOD    3
1
  VOLUMETRIC BUDGET FOR ENTIRE MODEL AT END OF TIME STEP    8, STRESS PERIOD   3
  ------------------------------------------------------------------------------

     CUMULATIVE VOLUMES      L**3       RATES FOR THIS TIME STEP      L**3/T
     ------------------                 ------------------------

           IN:                                      IN:
           ---                                      ---
             STORAGE =       1.0477E-08               STORAGE =           0.0000
       CONSTANT HEAD =           0.0000         CONSTANT HEAD =           0.0000
               WELLS =           0.0000                 WELLS =           0.0000
     HEAD DEP BOUNDS =       72628.0078       HEAD DEP BOUNDS =         666.3123

            TOTAL IN =       72628.0078              TOTAL IN =         666.3123

          OUT:                                     OUT:
          ----                                     ----
             STORAGE =       5.2387E-08               STORAGE =           0.0000
       CONSTANT HEAD =           0.0000         CONSTANT HEAD =           0.0000
               WELLS =           0.0000                 WELLS =           0.0000
     HEAD DEP BOUNDS =       72622.1953       HEAD DEP BOUNDS =         666.2595

           TOTAL OUT =       72622.1953             TOTAL OUT =         666.2595

            IN - OUT =           5.8125              IN - OUT =       5.2795E-02

 PERCENT DISCREPANCY =           0.01     PERCENT DISCREPANCY =           0.01






         TIME SUMMARY AT END OF TIME STEP    8 IN STRESS PERIOD    3
                    SECONDS     MINUTES      HOURS       DAYS        YEARS
                    -----------------------------------------------------------
   TIME STEP LENGTH  86400.      1440.0      24.000      1.0000     2.73785E-03
 STRESS PERIOD TIME 6.91200E+05  11520.      192.00      8.0000     2.19028E-02
         TOTAL TIME 9.41760E+06 1.56960E+05  2616.0      109.00     0.29843    
1
 
 SOLVING FOR HEAD 

 OUTPUT CONTROL FOR STRESS PERIOD    3   TIME STEP    9
    SAVE HEAD FOR ALL LAYERS
    SAVE DRAWDOWN FOR ALL LAYERS
    SAVE BUDGET
    PRINT HEAD FOR ALL LAYERS
    PRINT BUDGET
 UBDSV1 SAVING "         STORAGE" ON UNIT  53 AT TIME STEP  9, STRESS PERIOD   3
 UBDSV2 SAVING "   CONSTANT HEAD" ON UNIT  53 AT TIME STEP  9, STRESS PERIOD   3
 UBDSV1 SAVING "FLOW RIGHT FACE " ON UNIT  53 AT TIME STEP  9, STRESS PERIOD   3
 UBDSV1 SAVING "FLOW FRONT FACE " ON UNIT  53 AT TIME STEP  9, STRESS PERIOD   3
 UBDSV1 SAVING "FLOW LOWER FACE " ON UNIT  53 AT TIME STEP  9, STRESS PERIOD   3
1
              HEAD IN LAYER   1 AT END OF TIME STEP   9 IN STRESS PERIOD    3
  ---------------------------------------------------------------------------

            1           2           3           4           5           6           7           8           9          10
 ........................................................................................................................
   1    9.997       8.887       7.776       6.666       5.555       4.445       3.335       2.224       1.114      3.3313E-03
   2    9.997       8.887       7.776       6.666       5.555       4.445       3.335       2.224       1.114      3.3313E-03
   3    9.997       8.887       7.776       6.666       5.555       4.445       3.335       2.224       1.114      3.3313E-03
   4    9.997       8.887       7.776       6.666       5.555       4.445       3.335       2.224       1.114      3.3313E-03
   5    9.997       8.887       7.776       6.666       5.555       4.445       3.335       2.224       1.114      3.3313E-03
   6    9.997       8.887       7.776       6.666       5.555       4.445       3.335       2.224       1.114      3.3313E-03
   7    9.997       8.887       7.776       6.666       5.555       4.445       3.335       2.224       1.114      3.3313E-03
   8    9.997       8.887       7.776       6.666       5.555       4.445       3.335       2.224       1.114      3.3313E-03
   9    9.997       8.887       7.776       6.666       5.555       4.445       3.335       2.224       1.114      3.3313E-03
  10    9.997       8.887       7.776       6.666       5.555       4.445       3.335       2.224       1.114      3.3313E-03
1
              HEAD IN LAYER   2 AT END OF TIME STEP   9 IN STRESS PERIOD    3
  ---------------------------------------------------------------------------

            1           2           3           4           5           6           7           8           9          10
 ........................................................................................................................
   1    9.997       8.887       7.776       6.666       5.555       4.445       3.335       2.224       1.114      3.3313E-03
   2    9.997       8.887       7.776       6.666       5.555       4.445       3.335       2.224       1.114      3.3313E-03
   3    9.997       8.887       7.776       6.666       5.555       4.445       3.335       2.224       1.114      3.3313E-03
   4    9.997       8.887       7.776       6.666       5.555       4.445       3.335       2.224       1.114      3.3313E-03
   5    9.997       8.887       7.776       6.666       5.555       4.445       3.335       2.224       1.114      3.3313E-03
   6    9.997       8.887       7.776       6.666       5.555       4.445       3.335       2.224       1.114      3.3313E-03
   7    9.997       8.887       7.776       6.666       5.555       4.445       3.335       2.224       1.114      3.3313E-03
   8    9.997       8.887       7.776       6.666       5.555       4.445       3.335       2.224       1.114      3.3313E-03
   9    9.997       8.887       7.776       6.666       5.555       4.445       3.335       2.224       1.114      3.3313E-03
  10    9.997       8.887       7.776       6.666       5.555       4.445       3.335       2.224       1.114      3.3313E-03
1
              HEAD IN LAYER   3 AT END OF TIME STEP   9 IN STRESS PERIOD    3
  ---------------------------------------------------------------------------

            1           2           3           4           5           6           7           8           9          10
 ........................................................................................................................
   1    9.997       8.887       7.776       6.666       5.555       4.445       3.335       2.224       1.114      3.3313E-03
   2    9.997       8.887       7.776       6.666       5.555       4.445       3.335       2.224       1.114      3.3313E-03
   3    9.997       8.887       7.776       6.666       5.555       4.445       3.335       2.224       1.114      3.3313E-03
   4    9.997       8.887       7.776       6.666       5.555       4.445       3.335       2.224       1.114      3.3313E-03
   5    9.997       8.887       7.776       6.666       5.555       4.445       3.335       2.224       1.114      3.3313E-03
   6    9.997       8.887       7.776       6.666       5.555       4.445       3.335       2.224       1.114      3.3313E-03
   7    9.997       8.887       7.776       6.666       5.555       4.445       3.335       2.224       1.114      3.3313E-03
   8    9.997       8.887       7.776       6.666       5.555       4.445       3.335       2.224       1.114      3.3313E-03
   9    9.997       8.887       7.776       6.666       5.555       4.445       3.335       2.224       1.114      3.3313E-03
  10    9.997       8.887       7.776       6.666       5.555       4.445       3.335       2.224       1.114      3.3313E-03
1
              HEAD IN LAYER   4 AT END OF TIME STEP   9 IN STRESS PERIOD    3
  ---------------------------------------------------------------------------

            1           2           3           4           5           6           7           8           9          10
 ........................................................................................................................
   1    9.997       8.887       7.776       6.666       5.555       4.445       3.335       2.224       1.114      3.3313E-03
   2    9.997       8.887       7.776       6.666       5.555       4.445       3.335       2.224       1.114      3.3313E-03
   3    9.997       8.887       7.776       6.666       5.555       4.445       3.335       2.224       1.114      3.3313E-03
   4    9.997       8.887       7.776       6.666       5.555       4.445       3.335       2.224       1.114      3.3313E-03
   5    9.997       8.887       7.776       6.666       5.555       4.445       3.335       2.224       1.114      3.3313E-03
   6    9.997       8.887       7.776       6.666       5.555       4.445       3.335       2.224       1.114      3.3313E-03
   7    9.997       8.887       7.776       6.666       5.555       4.445       3.335       2.224       1.114      3.3313E-03
   8    9.997       8.887       7.776       6.666       5.555       4.445       3.335       2.224       1.114      3.3313E-03
   9    9.997       8.887       7.776       6.666       5.555       4.445       3.335       2.224       1.114      3.3313E-03
  10    9.997       8.887       7.776       6.666       5.555       4.445       3.335       2.224       1.114      3.3313E-03

 HEAD WILL BE SAVED ON UNIT   51 AT END OF TIME STEP    9, STRESS PERIOD    3

 DRAWDOWN WILL BE SAVED ON UNIT   52 AT END OF TIME STEP    9, STRESS PERIOD    3
1
  VOLUMETRIC BUDGET FOR ENTIRE MODEL AT END OF TIME STEP    9, STRESS PERIOD   3
  ------------------------------------------------------------------------------

     CUMULATIVE VOLUMES      L**3       RATES FOR THIS TIME STEP      L**3/T
     ------------------                 ------------------------

           IN:                                      IN:
           ---                                      ---
             STORAGE =       1.0477E-08               STORAGE =           0.0000
       CONSTANT HEAD =           0.0000         CONSTANT HEAD =           0.0000
               WELLS =           0.0000                 WELLS =           0.0000
     HEAD DEP BOUNDS =       73294.3203       HEAD DEP BOUNDS =         666.3123

            TOTAL IN =       73294.3203              TOTAL IN =         666.3123

          OUT:                                     OUT:
          ----                                     ----
             STORAGE =       5.2387E-08               STORAGE =           0.0000
       CONSTANT HEAD =           0.0000         CONSTANT HEAD =           0.0000
               WELLS =           0.0000                 WELLS =           0.0000
     HEAD DEP BOUNDS =       73288.4531       HEAD DEP BOUNDS =         666.2595

           TOTAL OUT =       73288.4531             TOTAL OUT =         666.2595

            IN - OUT =           5.8672              IN - OUT =       5.2795E-02

 PERCENT DISCREPANCY =           0.01     PERCENT DISCREPANCY =           0.01






         TIME SUMMARY AT END OF TIME STEP    9 IN STRESS PERIOD    3
                    SECONDS     MINUTES      HOURS       DAYS        YEARS
                    -----------------------------------------------------------
   TIME STEP LENGTH  86400.      1440.0      24.000      1.0000     2.73785E-03
 STRESS PERIOD TIME 7.77600E+05  12960.      216.00      9.0000     2.46407E-02
         TOTAL TIME 9.50400E+06 1.58400E+05  2640.0      110.00     0.30116    
1
 
 SOLVING FOR HEAD 

 OUTPUT CONTROL FOR STRESS PERIOD    3   TIME STEP   10
    SAVE HEAD FOR ALL LAYERS
    SAVE DRAWDOWN FOR ALL LAYERS
    SAVE BUDGET
    PRINT HEAD FOR ALL LAYERS
    PRINT BUDGET
 UBDSV1 SAVING "         STORAGE" ON UNIT  53 AT TIME STEP 10, STRESS PERIOD   3
 UBDSV2 SAVING "   CONSTANT HEAD" ON UNIT  53 AT TIME STEP 10, STRESS PERIOD   3
 UBDSV1 SAVING "FLOW RIGHT FACE " ON UNIT  53 AT TIME STEP 10, STRESS PERIOD   3
 UBDSV1 SAVING "FLOW FRONT FACE " ON UNIT  53 AT TIME STEP 10, STRESS PERIOD   3
 UBDSV1 SAVING "FLOW LOWER FACE " ON UNIT  53 AT TIME STEP 10, STRESS PERIOD   3
1
              HEAD IN LAYER   1 AT END OF TIME STEP  10 IN STRESS PERIOD    3
  ---------------------------------------------------------------------------

            1           2           3           4           5           6           7           8           9          10
 ........................................................................................................................
   1    9.997       8.887       7.776       6.666       5.555       4.445       3.335       2.224       1.114      3.3313E-03
   2    9.997       8.887       7.776       6.666       5.555       4.445       3.335       2.224       1.114      3.3313E-03
   3    9.997       8.887       7.776       6.666       5.555       4.445       3.335       2.224       1.114      3.3313E-03
   4    9.997       8.887       7.776       6.666       5.555       4.445       3.335       2.224       1.114      3.3313E-03
   5    9.997       8.887       7.776       6.666       5.555       4.445       3.335       2.224       1.114      3.3313E-03
   6    9.997       8.887       7.776       6.666       5.555       4.445       3.335       2.224       1.114      3.3313E-03
   7    9.997       8.887       7.776       6.666       5.555       4.445       3.335       2.224       1.114      3.3313E-03
   8    9.997       8.887       7.776       6.666       5.555       4.445       3.335       2.224       1.114      3.3313E-03
   9    9.997       8.887       7.776       6.666       5.555       4.445       3.335       2.224       1.114      3.3313E-03
  10    9.997       8.887       7.776       6.666       5.555       4.445       3.335       2.224       1.114      3.3313E-03
1
              HEAD IN LAYER   2 AT END OF TIME STEP  10 IN STRESS PERIOD    3
  ---------------------------------------------------------------------------

            1           2           3           4           5           6           7           8           9          10
 ........................................................................................................................
   1    9.997       8.887       7.776       6.666       5.555       4.445       3.335       2.224       1.114      3.3313E-03
   2    9.997       8.887       7.776       6.666       5.555       4.445       3.335       2.224       1.114      3.3313E-03
   3    9.997       8.887       7.776       6.666       5.555       4.445       3.335       2.224       1.114      3.3313E-03
   4    9.997       8.887       7.776       6.666       5.555       4.445       3.335       2.224       1.114      3.3313E-03
   5    9.997       8.887       7.776       6.666       5.555       4.445       3.335       2.224       1.114      3.3313E-03
   6    9.997       8.887       7.776       6.666       5.555       4.445       3.335       2.224       1.114      3.3313E-03
   7    9.997       8.887       7.776       6.666       5.555       4.445       3.335       2.224       1.114      3.3313E-03
   8    9.997       8.887       7.776       6.666       5.555       4.445       3.335       2.224       1.114      3.3313E-03
   9    9.997       8.887       7.776       6.666       5.555       4.445       3.335       2.224       1.114      3.3313E-03
  10    9.997       8.887       7.776       6.666       5.555       4.445       3.335       2.224       1.114      3.3313E-03
1
              HEAD IN LAYER   3 AT END OF TIME STEP  10 IN STRESS PERIOD    3
  ---------------------------------------------------------------------------

            1           2           3           4           5           6           7           8           9          10
 ........................................................................................................................
   1    9.997       8.887       7.776       6.666       5.555       4.445       3.335       2.224       1.114      3.3313E-03
   2    9.997       8.887       7.776       6.666       5.555       4.445       3.335       2.224       1.114      3.3313E-03
   3    9.997       8.887       7.776       6.666       5.555       4.445       3.335       2.224       1.114      3.3313E-03
   4    9.997       8.887       7.776       6.666       5.555       4.445       3.335       2.224       1.114      3.3313E-03
   5    9.997       8.887       7.776       6.666       5.555       4.445       3.335       2.224       1.114      3.3313E-03
   6    9.997       8.887       7.776       6.666       5.555       4.445       3.335       2.224       1.114      3.3313E-03
   7    9.997       8.887       7.776       6.666       5.555       4.445       3.335       2.224       1.114      3.3313E-03
   8    9.997       8.887       7.776       6.666       5.555       4.445       3.335       2.224       1.114      3.3313E-03
   9    9.997       8.887       7.776       6.666       5.555       4.445       3.335       2.224       1.114      3.3313E-03
  10    9.997       8.887       7.776       6.666       5.555       4.445       3.335       2.224       1.114      3.3313E-03
1
              HEAD IN LAYER   4 AT END OF TIME STEP  10 IN STRESS PERIOD    3
  ---------------------------------------------------------------------------

            1           2           3           4           5           6           7           8           9          10
 ........................................................................................................................
   1    9.997       8.887       7.776       6.666       5.555       4.445       3.335       2.224       1.114      3.3313E-03
   2    9.997       8.887       7.776       6.666       5.555       4.445       3.335       2.224       1.114      3.3313E-03
   3    9.997       8.887       7.776       6.666       5.555       4.445       3.335       2.224       1.114      3.3313E-03
   4    9.997       8.887       7.776       6.666       5.555       4.445       3.335       2.224       1.114      3.3313E-03
   5    9.997       8.887       7.776       6.666       5.555       4.445       3.335       2.224       1.114      3.3313E-03
   6    9.997       8.887       7.776       6.666       5.555       4.445       3.335       2.224       1.114      3.3313E-03
   7    9.997       8.887       7.776       6.666       5.555       4.445       3.335       2.224       1.114      3.3313E-03
   8    9.997       8.887       7.776       6.666       5.555       4.445       3.335       2.224       1.114      3.3313E-03
   9    9.997       8.887       7.776       6.666       5.555       4.445       3.335       2.224       1.114      3.3313E-03
  10    9.997       8.887       7.776       6.666       5.555       4.445       3.335       2.224       1.114      3.3313E-03

 HEAD WILL BE SAVED ON UNIT   51 AT END OF TIME STEP   10, STRESS PERIOD    3

 DRAWDOWN WILL BE SAVED ON UNIT   52 AT END OF TIME STEP   10, STRESS PERIOD    3
1
  VOLUMETRIC BUDGET FOR ENTIRE MODEL AT END OF TIME STEP   10, STRESS PERIOD   3
  ------------------------------------------------------------------------------

     CUMULATIVE VOLUMES      L**3       RATES FOR THIS TIME STEP      L**3/T
     ------------------                 ------------------------

           IN:                                      IN:
           ---                                      ---
             STORAGE =       1.0477E-08               STORAGE =           0.0000
       CONSTANT HEAD =           0.0000         CONSTANT HEAD =           0.0000
               WELLS =           0.0000                 WELLS =           0.0000
     HEAD DEP BOUNDS =       73960.6328       HEAD DEP BOUNDS =         666.3123

            TOTAL IN =       73960.6328              TOTAL IN =         666.3123

          OUT:                                     OUT:
          ----                                     ----
             STORAGE =       5.2387E-08               STORAGE =           0.0000
       CONSTANT HEAD =           0.0000         CONSTANT HEAD =           0.0000
               WELLS =           0.0000                 WELLS =           0.0000
     HEAD DEP BOUNDS =       73954.7109       HEAD DEP BOUNDS =         666.2595

           TOTAL OUT =       73954.7109             TOTAL OUT =         666.2595

            IN - OUT =           5.9219              IN - OUT =       5.2795E-02

 PERCENT DISCREPANCY =           0.01     PERCENT DISCREPANCY =           0.01






         TIME SUMMARY AT END OF TIME STEP   10 IN STRESS PERIOD    3
                    SECONDS     MINUTES      HOURS       DAYS        YEARS
                    -----------------------------------------------------------
   TIME STEP LENGTH  86400.      1440.0      24.000      1.0000     2.73785E-03
 STRESS PERIOD TIME 8.64000E+05  14400.      240.00      10.000     2.73785E-02
         TOTAL TIME 9.59040E+06 1.59840E+05  2664.0      111.00     0.30390    
1
 
 SOLVING FOR HEAD 

 OUTPUT CONTROL FOR STRESS PERIOD    3   TIME STEP   11
    SAVE HEAD FOR ALL LAYERS
    SAVE DRAWDOWN FOR ALL LAYERS
    SAVE BUDGET
    PRINT HEAD FOR ALL LAYERS
    PRINT BUDGET
 UBDSV1 SAVING "         STORAGE" ON UNIT  53 AT TIME STEP 11, STRESS PERIOD   3
 UBDSV2 SAVING "   CONSTANT HEAD" ON UNIT  53 AT TIME STEP 11, STRESS PERIOD   3
 UBDSV1 SAVING "FLOW RIGHT FACE " ON UNIT  53 AT TIME STEP 11, STRESS PERIOD   3
 UBDSV1 SAVING "FLOW FRONT FACE " ON UNIT  53 AT TIME STEP 11, STRESS PERIOD   3
 UBDSV1 SAVING "FLOW LOWER FACE " ON UNIT  53 AT TIME STEP 11, STRESS PERIOD   3
1
              HEAD IN LAYER   1 AT END OF TIME STEP  11 IN STRESS PERIOD    3
  ---------------------------------------------------------------------------

            1           2           3           4           5           6           7           8           9          10
 ........................................................................................................................
   1    9.997       8.887       7.776       6.666       5.555       4.445       3.335       2.224       1.114      3.3313E-03
   2    9.997       8.887       7.776       6.666       5.555       4.445       3.335       2.224       1.114      3.3313E-03
   3    9.997       8.887       7.776       6.666       5.555       4.445       3.335       2.224       1.114      3.3313E-03
   4    9.997       8.887       7.776       6.666       5.555       4.445       3.335       2.224       1.114      3.3313E-03
   5    9.997       8.887       7.776       6.666       5.555       4.445       3.335       2.224       1.114      3.3313E-03
   6    9.997       8.887       7.776       6.666       5.555       4.445       3.335       2.224       1.114      3.3313E-03
   7    9.997       8.887       7.776       6.666       5.555       4.445       3.335       2.224       1.114      3.3313E-03
   8    9.997       8.887       7.776       6.666       5.555       4.445       3.335       2.224       1.114      3.3313E-03
   9    9.997       8.887       7.776       6.666       5.555       4.445       3.335       2.224       1.114      3.3313E-03
  10    9.997       8.887       7.776       6.666       5.555       4.445       3.335       2.224       1.114      3.3313E-03
1
              HEAD IN LAYER   2 AT END OF TIME STEP  11 IN STRESS PERIOD    3
  ---------------------------------------------------------------------------

            1           2           3           4           5           6           7           8           9          10
 ........................................................................................................................
   1    9.997       8.887       7.776       6.666       5.555       4.445       3.335       2.224       1.114      3.3313E-03
   2    9.997       8.887       7.776       6.666       5.555       4.445       3.335       2.224       1.114      3.3313E-03
   3    9.997       8.887       7.776       6.666       5.555       4.445       3.335       2.224       1.114      3.3313E-03
   4    9.997       8.887       7.776       6.666       5.555       4.445       3.335       2.224       1.114      3.3313E-03
   5    9.997       8.887       7.776       6.666       5.555       4.445       3.335       2.224       1.114      3.3313E-03
   6    9.997       8.887       7.776       6.666       5.555       4.445       3.335       2.224       1.114      3.3313E-03
   7    9.997       8.887       7.776       6.666       5.555       4.445       3.335       2.224       1.114      3.3313E-03
   8    9.997       8.887       7.776       6.666       5.555       4.445       3.335       2.224       1.114      3.3313E-03
   9    9.997       8.887       7.776       6.666       5.555       4.445       3.335       2.224       1.114      3.3313E-03
  10    9.997       8.887       7.776       6.666       5.555       4.445       3.335       2.224       1.114      3.3313E-03
1
              HEAD IN LAYER   3 AT END OF TIME STEP  11 IN STRESS PERIOD    3
  ---------------------------------------------------------------------------

            1           2           3           4           5           6           7           8           9          10
 ........................................................................................................................
   1    9.997       8.887       7.776       6.666       5.555       4.445       3.335       2.224       1.114      3.3313E-03
   2    9.997       8.887       7.776       6.666       5.555       4.445       3.335       2.224       1.114      3.3313E-03
   3    9.997       8.887       7.776       6.666       5.555       4.445       3.335       2.224       1.114      3.3313E-03
   4    9.997       8.887       7.776       6.666       5.555       4.445       3.335       2.224       1.114      3.3313E-03
   5    9.997       8.887       7.776       6.666       5.555       4.445       3.335       2.224       1.114      3.3313E-03
   6    9.997       8.887       7.776       6.666       5.555       4.445       3.335       2.224       1.114      3.3313E-03
   7    9.997       8.887       7.776       6.666       5.555       4.445       3.335       2.224       1.114      3.3313E-03
   8    9.997       8.887       7.776       6.666       5.555       4.445       3.335       2.224       1.114      3.3313E-03
   9    9.997       8.887       7.776       6.666       5.555       4.445       3.335       2.224       1.114      3.3313E-03
  10    9.997       8.887       7.776       6.666       5.555       4.445       3.335       2.224       1.114      3.3313E-03
1
              HEAD IN LAYER   4 AT END OF TIME STEP  11 IN STRESS PERIOD    3
  ---------------------------------------------------------------------------

            1           2           3           4           5           6           7           8           9          10
 ........................................................................................................................
   1    9.997       8.887       7.776       6.666       5.555       4.445       3.335       2.224       1.114      3.3313E-03
   2    9.997       8.887       7.776       6.666       5.555       4.445       3.335       2.224       1.114      3.3313E-03
   3    9.997       8.887       7.776       6.666       5.555       4.445       3.335       2.224       1.114      3.3313E-03
   4    9.997       8.887       7.776       6.666       5.555       4.445       3.335       2.224       1.114      3.3313E-03
   5    9.997       8.887       7.776       6.666       5.555       4.445       3.335       2.224       1.114      3.3313E-03
   6    9.997       8.887       7.776       6.666       5.555       4.445       3.335       2.224       1.114      3.3313E-03
   7    9.997       8.887       7.776       6.666       5.555       4.445       3.335       2.224       1.114      3.3313E-03
   8    9.997       8.887       7.776       6.666       5.555       4.445       3.335       2.224       1.114      3.3313E-03
   9    9.997       8.887       7.776       6.666       5.555       4.445       3.335       2.224       1.114      3.3313E-03
  10    9.997       8.887       7.776       6.666       5.555       4.445       3.335       2.224       1.114      3.3313E-03

 HEAD WILL BE SAVED ON UNIT   51 AT END OF TIME STEP   11, STRESS PERIOD    3

 DRAWDOWN WILL BE SAVED ON UNIT   52 AT END OF TIME STEP   11, STRESS PERIOD    3
1
  VOLUMETRIC BUDGET FOR ENTIRE MODEL AT END OF TIME STEP   11, STRESS PERIOD   3
  ------------------------------------------------------------------------------

     CUMULATIVE VOLUMES      L**3       RATES FOR THIS TIME STEP      L**3/T
     ------------------                 ------------------------

           IN:                                      IN:
           ---                                      ---
             STORAGE =       1.0477E-08               STORAGE =           0.0000
       CONSTANT HEAD =           0.0000         CONSTANT HEAD =           0.0000
               WELLS =           0.0000                 WELLS =           0.0000
     HEAD DEP BOUNDS =       74626.9453       HEAD DEP BOUNDS =         666.3123

            TOTAL IN =       74626.9453              TOTAL IN =         666.3123

          OUT:                                     OUT:
          ----                                     ----
             STORAGE =       5.2387E-08               STORAGE =           0.0000
       CONSTANT HEAD =           0.0000         CONSTANT HEAD =           0.0000
               WELLS =           0.0000                 WELLS =           0.0000
     HEAD DEP BOUNDS =       74620.9688       HEAD DEP BOUNDS =         666.2595

           TOTAL OUT =       74620.9688             TOTAL OUT =         666.2595

            IN - OUT =           5.9766              IN - OUT =       5.2795E-02

 PERCENT DISCREPANCY =           0.01     PERCENT DISCREPANCY =           0.01






         TIME SUMMARY AT END OF TIME STEP   11 IN STRESS PERIOD    3
                    SECONDS     MINUTES      HOURS       DAYS        YEARS
                    -----------------------------------------------------------
   TIME STEP LENGTH  86400.      1440.0      24.000      1.0000     2.73785E-03
 STRESS PERIOD TIME 9.50400E+05  15840.      264.00      11.000     3.01164E-02
         TOTAL TIME 9.67680E+06 1.61280E+05  2688.0      112.00     0.30664    
1
 
 SOLVING FOR HEAD 

 OUTPUT CONTROL FOR STRESS PERIOD    3   TIME STEP   12
    SAVE HEAD FOR ALL LAYERS
    SAVE DRAWDOWN FOR ALL LAYERS
    SAVE BUDGET
    PRINT HEAD FOR ALL LAYERS
    PRINT BUDGET
 UBDSV1 SAVING "         STORAGE" ON UNIT  53 AT TIME STEP 12, STRESS PERIOD   3
 UBDSV2 SAVING "   CONSTANT HEAD" ON UNIT  53 AT TIME STEP 12, STRESS PERIOD   3
 UBDSV1 SAVING "FLOW RIGHT FACE " ON UNIT  53 AT TIME STEP 12, STRESS PERIOD   3
 UBDSV1 SAVING "FLOW FRONT FACE " ON UNIT  53 AT TIME STEP 12, STRESS PERIOD   3
 UBDSV1 SAVING "FLOW LOWER FACE " ON UNIT  53 AT TIME STEP 12, STRESS PERIOD   3
1
              HEAD IN LAYER   1 AT END OF TIME STEP  12 IN STRESS PERIOD    3
  ---------------------------------------------------------------------------

            1           2           3           4           5           6           7           8           9          10
 ........................................................................................................................
   1    9.997       8.887       7.776       6.666       5.555       4.445       3.335       2.224       1.114      3.3313E-03
   2    9.997       8.887       7.776       6.666       5.555       4.445       3.335       2.224       1.114      3.3313E-03
   3    9.997       8.887       7.776       6.666       5.555       4.445       3.335       2.224       1.114      3.3313E-03
   4    9.997       8.887       7.776       6.666       5.555       4.445       3.335       2.224       1.114      3.3313E-03
   5    9.997       8.887       7.776       6.666       5.555       4.445       3.335       2.224       1.114      3.3313E-03
   6    9.997       8.887       7.776       6.666       5.555       4.445       3.335       2.224       1.114      3.3313E-03
   7    9.997       8.887       7.776       6.666       5.555       4.445       3.335       2.224       1.114      3.3313E-03
   8    9.997       8.887       7.776       6.666       5.555       4.445       3.335       2.224       1.114      3.3313E-03
   9    9.997       8.887       7.776       6.666       5.555       4.445       3.335       2.224       1.114      3.3313E-03
  10    9.997       8.887       7.776       6.666       5.555       4.445       3.335       2.224       1.114      3.3313E-03
1
              HEAD IN LAYER   2 AT END OF TIME STEP  12 IN STRESS PERIOD    3
  ---------------------------------------------------------------------------

            1           2           3           4           5           6           7           8           9          10
 ........................................................................................................................
   1    9.997       8.887       7.776       6.666       5.555       4.445       3.335       2.224       1.114      3.3313E-03
   2    9.997       8.887       7.776       6.666       5.555       4.445       3.335       2.224       1.114      3.3313E-03
   3    9.997       8.887       7.776       6.666       5.555       4.445       3.335       2.224       1.114      3.3313E-03
   4    9.997       8.887       7.776       6.666       5.555       4.445       3.335       2.224       1.114      3.3313E-03
   5    9.997       8.887       7.776       6.666       5.555       4.445       3.335       2.224       1.114      3.3313E-03
   6    9.997       8.887       7.776       6.666       5.555       4.445       3.335       2.224       1.114      3.3313E-03
   7    9.997       8.887       7.776       6.666       5.555       4.445       3.335       2.224       1.114      3.3313E-03
   8    9.997       8.887       7.776       6.666       5.555       4.445       3.335       2.224       1.114      3.3313E-03
   9    9.997       8.887       7.776       6.666       5.555       4.445       3.335       2.224       1.114      3.3313E-03
  10    9.997       8.887       7.776       6.666       5.555       4.445       3.335       2.224       1.114      3.3313E-03
1
              HEAD IN LAYER   3 AT END OF TIME STEP  12 IN STRESS PERIOD    3
  ---------------------------------------------------------------------------

            1           2           3           4           5           6           7           8           9          10
 ........................................................................................................................
   1    9.997       8.887       7.776       6.666       5.555       4.445       3.335       2.224       1.114      3.3313E-03
   2    9.997       8.887       7.776       6.666       5.555       4.445       3.335       2.224       1.114      3.3313E-03
   3    9.997       8.887       7.776       6.666       5.555       4.445       3.335       2.224       1.114      3.3313E-03
   4    9.997       8.887       7.776       6.666       5.555       4.445       3.335       2.224       1.114      3.3313E-03
   5    9.997       8.887       7.776       6.666       5.555       4.445       3.335       2.224       1.114      3.3313E-03
   6    9.997       8.887       7.776       6.666       5.555       4.445       3.335       2.224       1.114      3.3313E-03
   7    9.997       8.887       7.776       6.666       5.555       4.445       3.335       2.224       1.114      3.3313E-03
   8    9.997       8.887       7.776       6.666       5.555       4.445       3.335       2.224       1.114      3.3313E-03
   9    9.997       8.887       7.776       6.666       5.555       4.445       3.335       2.224       1.114      3.3313E-03
  10    9.997       8.887       7.776       6.666       5.555       4.445       3.335       2.224       1.114      3.3313E-03
1
              HEAD IN LAYER   4 AT END OF TIME STEP  12 IN STRESS PERIOD    3
  ---------------------------------------------------------------------------

            1           2           3           4           5           6           7           8           9          10
 ........................................................................................................................
   1    9.997       8.887       7.776       6.666       5.555       4.445       3.335       2.224       1.114      3.3313E-03
   2    9.997       8.887       7.776       6.666       5.555       4.445       3.335       2.224       1.114      3.3313E-03
   3    9.997       8.887       7.776       6.666       5.555       4.445       3.335       2.224       1.114      3.3313E-03
   4    9.997       8.887       7.776       6.666       5.555       4.445       3.335       2.224       1.114      3.3313E-03
   5    9.997       8.887       7.776       6.666       5.555       4.445       3.335       2.224       1.114      3.3313E-03
   6    9.997       8.887       7.776       6.666       5.555       4.445       3.335       2.224       1.114      3.3313E-03
   7    9.997       8.887       7.776       6.666       5.555       4.445       3.335       2.224       1.114      3.3313E-03
   8    9.997       8.887       7.776       6.666       5.555       4.445       3.335       2.224       1.114      3.3313E-03
   9    9.997       8.887       7.776       6.666       5.555       4.445       3.335       2.224       1.114      3.3313E-03
  10    9.997       8.887       7.776       6.666       5.555       4.445       3.335       2.224       1.114      3.3313E-03

 HEAD WILL BE SAVED ON UNIT   51 AT END OF TIME STEP   12, STRESS PERIOD    3

 DRAWDOWN WILL BE SAVED ON UNIT   52 AT END OF TIME STEP   12, STRESS PERIOD    3
1
  VOLUMETRIC BUDGET FOR ENTIRE MODEL AT END OF TIME STEP   12, STRESS PERIOD   3
  ------------------------------------------------------------------------------

     CUMULATIVE VOLUMES      L**3       RATES FOR THIS TIME STEP      L**3/T
     ------------------                 ------------------------

           IN:                                      IN:
           ---                                      ---
             STORAGE =       1.0477E-08               STORAGE =           0.0000
       CONSTANT HEAD =           0.0000         CONSTANT HEAD =           0.0000
               WELLS =           0.0000                 WELLS =           0.0000
     HEAD DEP BOUNDS =       75293.2578       HEAD DEP BOUNDS =         666.3123

            TOTAL IN =       75293.2578              TOTAL IN =         666.3123

          OUT:                                     OUT:
          ----                                     ----
             STORAGE =       5.2387E-08               STORAGE =           0.0000
       CONSTANT HEAD =           0.0000         CONSTANT HEAD =           0.0000
               WELLS =           0.0000                 WELLS =           0.0000
     HEAD DEP BOUNDS =       75287.2266       HEAD DEP BOUNDS =         666.2595

           TOTAL OUT =       75287.2266             TOTAL OUT =         666.2595

            IN - OUT =           6.0312              IN - OUT =       5.2795E-02

 PERCENT DISCREPANCY =           0.01     PERCENT DISCREPANCY =           0.01






         TIME SUMMARY AT END OF TIME STEP   12 IN STRESS PERIOD    3
                    SECONDS     MINUTES      HOURS       DAYS        YEARS
                    -----------------------------------------------------------
   TIME STEP LENGTH  86400.      1440.0      24.000      1.0000     2.73785E-03
 STRESS PERIOD TIME 1.03680E+06  17280.      288.00      12.000     3.28542E-02
         TOTAL TIME 9.76320E+06 1.62720E+05  2712.0      113.00     0.30938    
1
 
 SOLVING FOR HEAD 

 OUTPUT CONTROL FOR STRESS PERIOD    3   TIME STEP   13
    SAVE HEAD FOR ALL LAYERS
    SAVE DRAWDOWN FOR ALL LAYERS
    SAVE BUDGET
    PRINT HEAD FOR ALL LAYERS
    PRINT BUDGET
 UBDSV1 SAVING "         STORAGE" ON UNIT  53 AT TIME STEP 13, STRESS PERIOD   3
 UBDSV2 SAVING "   CONSTANT HEAD" ON UNIT  53 AT TIME STEP 13, STRESS PERIOD   3
 UBDSV1 SAVING "FLOW RIGHT FACE " ON UNIT  53 AT TIME STEP 13, STRESS PERIOD   3
 UBDSV1 SAVING "FLOW FRONT FACE " ON UNIT  53 AT TIME STEP 13, STRESS PERIOD   3
 UBDSV1 SAVING "FLOW LOWER FACE " ON UNIT  53 AT TIME STEP 13, STRESS PERIOD   3
1
              HEAD IN LAYER   1 AT END OF TIME STEP  13 IN STRESS PERIOD    3
  ---------------------------------------------------------------------------

            1           2           3           4           5           6           7           8           9          10
 ........................................................................................................................
   1    9.997       8.887       7.776       6.666       5.555       4.445       3.335       2.224       1.114      3.3313E-03
   2    9.997       8.887       7.776       6.666       5.555       4.445       3.335       2.224       1.114      3.3313E-03
   3    9.997       8.887       7.776       6.666       5.555       4.445       3.335       2.224       1.114      3.3313E-03
   4    9.997       8.887       7.776       6.666       5.555       4.445       3.335       2.224       1.114      3.3313E-03
   5    9.997       8.887       7.776       6.666       5.555       4.445       3.335       2.224       1.114      3.3313E-03
   6    9.997       8.887       7.776       6.666       5.555       4.445       3.335       2.224       1.114      3.3313E-03
   7    9.997       8.887       7.776       6.666       5.555       4.445       3.335       2.224       1.114      3.3313E-03
   8    9.997       8.887       7.776       6.666       5.555       4.445       3.335       2.224       1.114      3.3313E-03
   9    9.997       8.887       7.776       6.666       5.555       4.445       3.335       2.224       1.114      3.3313E-03
  10    9.997       8.887       7.776       6.666       5.555       4.445       3.335       2.224       1.114      3.3313E-03
1
              HEAD IN LAYER   2 AT END OF TIME STEP  13 IN STRESS PERIOD    3
  ---------------------------------------------------------------------------

            1           2           3           4           5           6           7           8           9          10
 ........................................................................................................................
   1    9.997       8.887       7.776       6.666       5.555       4.445       3.335       2.224       1.114      3.3313E-03
   2    9.997       8.887       7.776       6.666       5.555       4.445       3.335       2.224       1.114      3.3313E-03
   3    9.997       8.887       7.776       6.666       5.555       4.445       3.335       2.224       1.114      3.3313E-03
   4    9.997       8.887       7.776       6.666       5.555       4.445       3.335       2.224       1.114      3.3313E-03
   5    9.997       8.887       7.776       6.666       5.555       4.445       3.335       2.224       1.114      3.3313E-03
   6    9.997       8.887       7.776       6.666       5.555       4.445       3.335       2.224       1.114      3.3313E-03
   7    9.997       8.887       7.776       6.666       5.555       4.445       3.335       2.224       1.114      3.3313E-03
   8    9.997       8.887       7.776       6.666       5.555       4.445       3.335       2.224       1.114      3.3313E-03
   9    9.997       8.887       7.776       6.666       5.555       4.445       3.335       2.224       1.114      3.3313E-03
  10    9.997       8.887       7.776       6.666       5.555       4.445       3.335       2.224       1.114      3.3313E-03
1
              HEAD IN LAYER   3 AT END OF TIME STEP  13 IN STRESS PERIOD    3
  ---------------------------------------------------------------------------

            1           2           3           4           5           6           7           8           9          10
 ........................................................................................................................
   1    9.997       8.887       7.776       6.666       5.555       4.445       3.335       2.224       1.114      3.3313E-03
   2    9.997       8.887       7.776       6.666       5.555       4.445       3.335       2.224       1.114      3.3313E-03
   3    9.997       8.887       7.776       6.666       5.555       4.445       3.335       2.224       1.114      3.3313E-03
   4    9.997       8.887       7.776       6.666       5.555       4.445       3.335       2.224       1.114      3.3313E-03
   5    9.997       8.887       7.776       6.666       5.555       4.445       3.335       2.224       1.114      3.3313E-03
   6    9.997       8.887       7.776       6.666       5.555       4.445       3.335       2.224       1.114      3.3313E-03
   7    9.997       8.887       7.776       6.666       5.555       4.445       3.335       2.224       1.114      3.3313E-03
   8    9.997       8.887       7.776       6.666       5.555       4.445       3.335       2.224       1.114      3.3313E-03
   9    9.997       8.887       7.776       6.666       5.555       4.445       3.335       2.224       1.114      3.3313E-03
  10    9.997       8.887       7.776       6.666       5.555       4.445       3.335       2.224       1.114      3.3313E-03
1
              HEAD IN LAYER   4 AT END OF TIME STEP  13 IN STRESS PERIOD    3
  ---------------------------------------------------------------------------

            1           2           3           4           5           6           7           8           9          10
 ........................................................................................................................
   1    9.997       8.887       7.776       6.666       5.555       4.445       3.335       2.224       1.114      3.3313E-03
   2    9.997       8.887       7.776       6.666       5.555       4.445       3.335       2.224       1.114      3.3313E-03
   3    9.997       8.887       7.776       6.666       5.555       4.445       3.335       2.224       1.114      3.3313E-03
   4    9.997       8.887       7.776       6.666       5.555       4.445       3.335       2.224       1.114      3.3313E-03
   5    9.997       8.887       7.776       6.666       5.555       4.445       3.335       2.224       1.114      3.3313E-03
   6    9.997       8.887       7.776       6.666       5.555       4.445       3.335       2.224       1.114      3.3313E-03
   7    9.997       8.887       7.776       6.666       5.555       4.445       3.335       2.224       1.114      3.3313E-03
   8    9.997       8.887       7.776       6.666       5.555       4.445       3.335       2.224       1.114      3.3313E-03
   9    9.997       8.887       7.776       6.666       5.555       4.445       3.335       2.224       1.114      3.3313E-03
  10    9.997       8.887       7.776       6.666       5.555       4.445       3.335       2.224       1.114      3.3313E-03

 HEAD WILL BE SAVED ON UNIT   51 AT END OF TIME STEP   13, STRESS PERIOD    3

 DRAWDOWN WILL BE SAVED ON UNIT   52 AT END OF TIME STEP   13, STRESS PERIOD    3
1
  VOLUMETRIC BUDGET FOR ENTIRE MODEL AT END OF TIME STEP   13, STRESS PERIOD   3
  ------------------------------------------------------------------------------

     CUMULATIVE VOLUMES      L**3       RATES FOR THIS TIME STEP      L**3/T
     ------------------                 ------------------------

           IN:                                      IN:
           ---                                      ---
             STORAGE =       1.0477E-08               STORAGE =           0.0000
       CONSTANT HEAD =           0.0000         CONSTANT HEAD =           0.0000
               WELLS =           0.0000                 WELLS =           0.0000
     HEAD DEP BOUNDS =       75959.5703       HEAD DEP BOUNDS =         666.3123

            TOTAL IN =       75959.5703              TOTAL IN =         666.3123

          OUT:                                     OUT:
          ----                                     ----
             STORAGE =       5.2387E-08               STORAGE =           0.0000
       CONSTANT HEAD =           0.0000         CONSTANT HEAD =           0.0000
               WELLS =           0.0000                 WELLS =           0.0000
     HEAD DEP BOUNDS =       75953.4844       HEAD DEP BOUNDS =         666.2595

           TOTAL OUT =       75953.4844             TOTAL OUT =         666.2595

            IN - OUT =           6.0859              IN - OUT =       5.2795E-02

 PERCENT DISCREPANCY =           0.01     PERCENT DISCREPANCY =           0.01






         TIME SUMMARY AT END OF TIME STEP   13 IN STRESS PERIOD    3
                    SECONDS     MINUTES      HOURS       DAYS        YEARS
                    -----------------------------------------------------------
   TIME STEP LENGTH  86400.      1440.0      24.000      1.0000     2.73785E-03
 STRESS PERIOD TIME 1.12320E+06  18720.      312.00      13.000     3.55921E-02
         TOTAL TIME 9.84960E+06 1.64160E+05  2736.0      114.00     0.31211    
1
 
 SOLVING FOR HEAD 

 OUTPUT CONTROL FOR STRESS PERIOD    3   TIME STEP   14
    SAVE HEAD FOR ALL LAYERS
    SAVE DRAWDOWN FOR ALL LAYERS
    SAVE BUDGET
    PRINT HEAD FOR ALL LAYERS
    PRINT BUDGET
 UBDSV1 SAVING "         STORAGE" ON UNIT  53 AT TIME STEP 14, STRESS PERIOD   3
 UBDSV2 SAVING "   CONSTANT HEAD" ON UNIT  53 AT TIME STEP 14, STRESS PERIOD   3
 UBDSV1 SAVING "FLOW RIGHT FACE " ON UNIT  53 AT TIME STEP 14, STRESS PERIOD   3
 UBDSV1 SAVING "FLOW FRONT FACE " ON UNIT  53 AT TIME STEP 14, STRESS PERIOD   3
 UBDSV1 SAVING "FLOW LOWER FACE " ON UNIT  53 AT TIME STEP 14, STRESS PERIOD   3
1
              HEAD IN LAYER   1 AT END OF TIME STEP  14 IN STRESS PERIOD    3
  ---------------------------------------------------------------------------

            1           2           3           4           5           6           7           8           9          10
 ........................................................................................................................
   1    9.997       8.887       7.776       6.666       5.555       4.445       3.335       2.224       1.114      3.3313E-03
   2    9.997       8.887       7.776       6.666       5.555       4.445       3.335       2.224       1.114      3.3313E-03
   3    9.997       8.887       7.776       6.666       5.555       4.445       3.335       2.224       1.114      3.3313E-03
   4    9.997       8.887       7.776       6.666       5.555       4.445       3.335       2.224       1.114      3.3313E-03
   5    9.997       8.887       7.776       6.666       5.555       4.445       3.335       2.224       1.114      3.3313E-03
   6    9.997       8.887       7.776       6.666       5.555       4.445       3.335       2.224       1.114      3.3313E-03
   7    9.997       8.887       7.776       6.666       5.555       4.445       3.335       2.224       1.114      3.3313E-03
   8    9.997       8.887       7.776       6.666       5.555       4.445       3.335       2.224       1.114      3.3313E-03
   9    9.997       8.887       7.776       6.666       5.555       4.445       3.335       2.224       1.114      3.3313E-03
  10    9.997       8.887       7.776       6.666       5.555       4.445       3.335       2.224       1.114      3.3313E-03
1
              HEAD IN LAYER   2 AT END OF TIME STEP  14 IN STRESS PERIOD    3
  ---------------------------------------------------------------------------

            1           2           3           4           5           6           7           8           9          10
 ........................................................................................................................
   1    9.997       8.887       7.776       6.666       5.555       4.445       3.335       2.224       1.114      3.3313E-03
   2    9.997       8.887       7.776       6.666       5.555       4.445       3.335       2.224       1.114      3.3313E-03
   3    9.997       8.887       7.776       6.666       5.555       4.445       3.335       2.224       1.114      3.3313E-03
   4    9.997       8.887       7.776       6.666       5.555       4.445       3.335       2.224       1.114      3.3313E-03
   5    9.997       8.887       7.776       6.666       5.555       4.445       3.335       2.224       1.114      3.3313E-03
   6    9.997       8.887       7.776       6.666       5.555       4.445       3.335       2.224       1.114      3.3313E-03
   7    9.997       8.887       7.776       6.666       5.555       4.445       3.335       2.224       1.114      3.3313E-03
   8    9.997       8.887       7.776       6.666       5.555       4.445       3.335       2.224       1.114      3.3313E-03
   9    9.997       8.887       7.776       6.666       5.555       4.445       3.335       2.224       1.114      3.3313E-03
  10    9.997       8.887       7.776       6.666       5.555       4.445       3.335       2.224       1.114      3.3313E-03
1
              HEAD IN LAYER   3 AT END OF TIME STEP  14 IN STRESS PERIOD    3
  ---------------------------------------------------------------------------

            1           2           3           4           5           6           7           8           9          10
 ........................................................................................................................
   1    9.997       8.887       7.776       6.666       5.555       4.445       3.335       2.224       1.114      3.3313E-03
   2    9.997       8.887       7.776       6.666       5.555       4.445       3.335       2.224       1.114      3.3313E-03
   3    9.997       8.887       7.776       6.666       5.555       4.445       3.335       2.224       1.114      3.3313E-03
   4    9.997       8.887       7.776       6.666       5.555       4.445       3.335       2.224       1.114      3.3313E-03
   5    9.997       8.887       7.776       6.666       5.555       4.445       3.335       2.224       1.114      3.3313E-03
   6    9.997       8.887       7.776       6.666       5.555       4.445       3.335       2.224       1.114      3.3313E-03
   7    9.997       8.887       7.776       6.666       5.555       4.445       3.335       2.224       1.114      3.3313E-03
   8    9.997       8.887       7.776       6.666       5.555       4.445       3.335       2.224       1.114      3.3313E-03
   9    9.997       8.887       7.776       6.666       5.555       4.445       3.335       2.224       1.114      3.3313E-03
  10    9.997       8.887       7.776       6.666       5.555       4.445       3.335       2.224       1.114      3.3313E-03
1
              HEAD IN LAYER   4 AT END OF TIME STEP  14 IN STRESS PERIOD    3
  ---------------------------------------------------------------------------

            1           2           3           4           5           6           7           8           9          10
 ........................................................................................................................
   1    9.997       8.887       7.776       6.666       5.555       4.445       3.335       2.224       1.114      3.3313E-03
   2    9.997       8.887       7.776       6.666       5.555       4.445       3.335       2.224       1.114      3.3313E-03
   3    9.997       8.887       7.776       6.666       5.555       4.445       3.335       2.224       1.114      3.3313E-03
   4    9.997       8.887       7.776       6.666       5.555       4.445       3.335       2.224       1.114      3.3313E-03
   5    9.997       8.887       7.776       6.666       5.555       4.445       3.335       2.224       1.114      3.3313E-03
   6    9.997       8.887       7.776       6.666       5.555       4.445       3.335       2.224       1.114      3.3313E-03
   7    9.997       8.887       7.776       6.666       5.555       4.445       3.335       2.224       1.114      3.3313E-03
   8    9.997       8.887       7.776       6.666       5.555       4.445       3.335       2.224       1.114      3.3313E-03
   9    9.997       8.887       7.776       6.666       5.555       4.445       3.335       2.224       1.114      3.3313E-03
  10    9.997       8.887       7.776       6.666       5.555       4.445       3.335       2.224       1.114      3.3313E-03

 HEAD WILL BE SAVED ON UNIT   51 AT END OF TIME STEP   14, STRESS PERIOD    3

 DRAWDOWN WILL BE SAVED ON UNIT   52 AT END OF TIME STEP   14, STRESS PERIOD    3
1
  VOLUMETRIC BUDGET FOR ENTIRE MODEL AT END OF TIME STEP   14, STRESS PERIOD   3
  ------------------------------------------------------------------------------

     CUMULATIVE VOLUMES      L**3       RATES FOR THIS TIME STEP      L**3/T
     ------------------                 ------------------------

           IN:                                      IN:
           ---                                      ---
             STORAGE =       1.0477E-08               STORAGE =           0.0000
       CONSTANT HEAD =           0.0000         CONSTANT HEAD =           0.0000
               WELLS =           0.0000                 WELLS =           0.0000
     HEAD DEP BOUNDS =       76625.8828       HEAD DEP BOUNDS =         666.3123

            TOTAL IN =       76625.8828              TOTAL IN =         666.3123

          OUT:                                     OUT:
          ----                                     ----
             STORAGE =       5.2387E-08               STORAGE =           0.0000
       CONSTANT HEAD =           0.0000         CONSTANT HEAD =           0.0000
               WELLS =           0.0000                 WELLS =           0.0000
     HEAD DEP BOUNDS =       76619.7422       HEAD DEP BOUNDS =         666.2595

           TOTAL OUT =       76619.7422             TOTAL OUT =         666.2595

            IN - OUT =           6.1406              IN - OUT =       5.2795E-02

 PERCENT DISCREPANCY =           0.01     PERCENT DISCREPANCY =           0.01






         TIME SUMMARY AT END OF TIME STEP   14 IN STRESS PERIOD    3
                    SECONDS     MINUTES      HOURS       DAYS        YEARS
                    -----------------------------------------------------------
   TIME STEP LENGTH  86400.      1440.0      24.000      1.0000     2.73785E-03
 STRESS PERIOD TIME 1.20960E+06  20160.      336.00      14.000     3.83299E-02
         TOTAL TIME 9.93600E+06 1.65600E+05  2760.0      115.00     0.31485    
1
 
 SOLVING FOR HEAD 

 OUTPUT CONTROL FOR STRESS PERIOD    3   TIME STEP   15
    SAVE HEAD FOR ALL LAYERS
    SAVE DRAWDOWN FOR ALL LAYERS
    SAVE BUDGET
    PRINT HEAD FOR ALL LAYERS
    PRINT BUDGET
 UBDSV1 SAVING "         STORAGE" ON UNIT  53 AT TIME STEP 15, STRESS PERIOD   3
 UBDSV2 SAVING "   CONSTANT HEAD" ON UNIT  53 AT TIME STEP 15, STRESS PERIOD   3
 UBDSV1 SAVING "FLOW RIGHT FACE " ON UNIT  53 AT TIME STEP 15, STRESS PERIOD   3
 UBDSV1 SAVING "FLOW FRONT FACE " ON UNIT  53 AT TIME STEP 15, STRESS PERIOD   3
 UBDSV1 SAVING "FLOW LOWER FACE " ON UNIT  53 AT TIME STEP 15, STRESS PERIOD   3
1
              HEAD IN LAYER   1 AT END OF TIME STEP  15 IN STRESS PERIOD    3
  ---------------------------------------------------------------------------

            1           2           3           4           5           6           7           8           9          10
 ........................................................................................................................
   1    9.997       8.887       7.776       6.666       5.555       4.445       3.335       2.224       1.114      3.3313E-03
   2    9.997       8.887       7.776       6.666       5.555       4.445       3.335       2.224       1.114      3.3313E-03
   3    9.997       8.887       7.776       6.666       5.555       4.445       3.335       2.224       1.114      3.3313E-03
   4    9.997       8.887       7.776       6.666       5.555       4.445       3.335       2.224       1.114      3.3313E-03
   5    9.997       8.887       7.776       6.666       5.555       4.445       3.335       2.224       1.114      3.3313E-03
   6    9.997       8.887       7.776       6.666       5.555       4.445       3.335       2.224       1.114      3.3313E-03
   7    9.997       8.887       7.776       6.666       5.555       4.445       3.335       2.224       1.114      3.3313E-03
   8    9.997       8.887       7.776       6.666       5.555       4.445       3.335       2.224       1.114      3.3313E-03
   9    9.997       8.887       7.776       6.666       5.555       4.445       3.335       2.224       1.114      3.3313E-03
  10    9.997       8.887       7.776       6.666       5.555       4.445       3.335       2.224       1.114      3.3313E-03
1
              HEAD IN LAYER   2 AT END OF TIME STEP  15 IN STRESS PERIOD    3
  ---------------------------------------------------------------------------

            1           2           3           4           5           6           7           8           9          10
 ........................................................................................................................
   1    9.997       8.887       7.776       6.666       5.555       4.445       3.335       2.224       1.114      3.3313E-03
   2    9.997       8.887       7.776       6.666       5.555       4.445       3.335       2.224       1.114      3.3313E-03
   3    9.997       8.887       7.776       6.666       5.555       4.445       3.335       2.224       1.114      3.3313E-03
   4    9.997       8.887       7.776       6.666       5.555       4.445       3.335       2.224       1.114      3.3313E-03
   5    9.997       8.887       7.776       6.666       5.555       4.445       3.335       2.224       1.114      3.3313E-03
   6    9.997       8.887       7.776       6.666       5.555       4.445       3.335       2.224       1.114      3.3313E-03
   7    9.997       8.887       7.776       6.666       5.555       4.445       3.335       2.224       1.114      3.3313E-03
   8    9.997       8.887       7.776       6.666       5.555       4.445       3.335       2.224       1.114      3.3313E-03
   9    9.997       8.887       7.776       6.666       5.555       4.445       3.335       2.224       1.114      3.3313E-03
  10    9.997       8.887       7.776       6.666       5.555       4.445       3.335       2.224       1.114      3.3313E-03
1
              HEAD IN LAYER   3 AT END OF TIME STEP  15 IN STRESS PERIOD    3
  ---------------------------------------------------------------------------

            1           2           3           4           5           6           7           8           9          10
 ........................................................................................................................
   1    9.997       8.887       7.776       6.666       5.555       4.445       3.335       2.224       1.114      3.3313E-03
   2    9.997       8.887       7.776       6.666       5.555       4.445       3.335       2.224       1.114      3.3313E-03
   3    9.997       8.887       7.776       6.666       5.555       4.445       3.335       2.224       1.114      3.3313E-03
   4    9.997       8.887       7.776       6.666       5.555       4.445       3.335       2.224       1.114      3.3313E-03
   5    9.997       8.887       7.776       6.666       5.555       4.445       3.335       2.224       1.114      3.3313E-03
   6    9.997       8.887       7.776       6.666       5.555       4.445       3.335       2.224       1.114      3.3313E-03
   7    9.997       8.887       7.776       6.666       5.555       4.445       3.335       2.224       1.114      3.3313E-03
   8    9.997       8.887       7.776       6.666       5.555       4.445       3.335       2.224       1.114      3.3313E-03
   9    9.997       8.887       7.776       6.666       5.555       4.445       3.335       2.224       1.114      3.3313E-03
  10    9.997       8.887       7.776       6.666       5.555       4.445       3.335       2.224       1.114      3.3313E-03
1
              HEAD IN LAYER   4 AT END OF TIME STEP  15 IN STRESS PERIOD    3
  ---------------------------------------------------------------------------

            1           2           3           4           5           6           7           8           9          10
 ........................................................................................................................
   1    9.997       8.887       7.776       6.666       5.555       4.445       3.335       2.224       1.114      3.3313E-03
   2    9.997       8.887       7.776       6.666       5.555       4.445       3.335       2.224       1.114      3.3313E-03
   3    9.997       8.887       7.776       6.666       5.555       4.445       3.335       2.224       1.114      3.3313E-03
   4    9.997       8.887       7.776       6.666       5.555       4.445       3.335       2.224       1.114      3.3313E-03
   5    9.997       8.887       7.776       6.666       5.555       4.445       3.335       2.224       1.114      3.3313E-03
   6    9.997       8.887       7.776       6.666       5.555       4.445       3.335       2.224       1.114      3.3313E-03
   7    9.997       8.887       7.776       6.666       5.555       4.445       3.335       2.224       1.114      3.3313E-03
   8    9.997       8.887       7.776       6.666       5.555       4.445       3.335       2.224       1.114      3.3313E-03
   9    9.997       8.887       7.776       6.666       5.555       4.445       3.335       2.224       1.114      3.3313E-03
  10    9.997       8.887       7.776       6.666       5.555       4.445       3.335       2.224       1.114      3.3313E-03

 HEAD WILL BE SAVED ON UNIT   51 AT END OF TIME STEP   15, STRESS PERIOD    3

 DRAWDOWN WILL BE SAVED ON UNIT   52 AT END OF TIME STEP   15, STRESS PERIOD    3
1
  VOLUMETRIC BUDGET FOR ENTIRE MODEL AT END OF TIME STEP   15, STRESS PERIOD   3
  ------------------------------------------------------------------------------

     CUMULATIVE VOLUMES      L**3       RATES FOR THIS TIME STEP      L**3/T
     ------------------                 ------------------------

           IN:                                      IN:
           ---                                      ---
             STORAGE =       1.0477E-08               STORAGE =           0.0000
       CONSTANT HEAD =           0.0000         CONSTANT HEAD =           0.0000
               WELLS =           0.0000                 WELLS =           0.0000
     HEAD DEP BOUNDS =       77292.1953       HEAD DEP BOUNDS =         666.3123

            TOTAL IN =       77292.1953              TOTAL IN =         666.3123

          OUT:                                     OUT:
          ----                                     ----
             STORAGE =       5.2387E-08               STORAGE =           0.0000
       CONSTANT HEAD =           0.0000         CONSTANT HEAD =           0.0000
               WELLS =           0.0000                 WELLS =           0.0000
     HEAD DEP BOUNDS =       77286.0000       HEAD DEP BOUNDS =         666.2595

           TOTAL OUT =       77286.0000             TOTAL OUT =         666.2595

            IN - OUT =           6.1953              IN - OUT =       5.2795E-02

 PERCENT DISCREPANCY =           0.01     PERCENT DISCREPANCY =           0.01






         TIME SUMMARY AT END OF TIME STEP   15 IN STRESS PERIOD    3
                    SECONDS     MINUTES      HOURS       DAYS        YEARS
                    -----------------------------------------------------------
   TIME STEP LENGTH  86400.      1440.0      24.000      1.0000     2.73785E-03
 STRESS PERIOD TIME 1.29600E+06  21600.      360.00      15.000     4.10678E-02
         TOTAL TIME 1.00224E+07 1.67040E+05  2784.0      116.00     0.31759    
1
 
 SOLVING FOR HEAD 

 OUTPUT CONTROL FOR STRESS PERIOD    3   TIME STEP   16
    SAVE HEAD FOR ALL LAYERS
    SAVE DRAWDOWN FOR ALL LAYERS
    SAVE BUDGET
    PRINT HEAD FOR ALL LAYERS
    PRINT BUDGET
 UBDSV1 SAVING "         STORAGE" ON UNIT  53 AT TIME STEP 16, STRESS PERIOD   3
 UBDSV2 SAVING "   CONSTANT HEAD" ON UNIT  53 AT TIME STEP 16, STRESS PERIOD   3
 UBDSV1 SAVING "FLOW RIGHT FACE " ON UNIT  53 AT TIME STEP 16, STRESS PERIOD   3
 UBDSV1 SAVING "FLOW FRONT FACE " ON UNIT  53 AT TIME STEP 16, STRESS PERIOD   3
 UBDSV1 SAVING "FLOW LOWER FACE " ON UNIT  53 AT TIME STEP 16, STRESS PERIOD   3
1
              HEAD IN LAYER   1 AT END OF TIME STEP  16 IN STRESS PERIOD    3
  ---------------------------------------------------------------------------

            1           2           3           4           5           6           7           8           9          10
 ........................................................................................................................
   1    9.997       8.887       7.776       6.666       5.555       4.445       3.335       2.224       1.114      3.3313E-03
   2    9.997       8.887       7.776       6.666       5.555       4.445       3.335       2.224       1.114      3.3313E-03
   3    9.997       8.887       7.776       6.666       5.555       4.445       3.335       2.224       1.114      3.3313E-03
   4    9.997       8.887       7.776       6.666       5.555       4.445       3.335       2.224       1.114      3.3313E-03
   5    9.997       8.887       7.776       6.666       5.555       4.445       3.335       2.224       1.114      3.3313E-03
   6    9.997       8.887       7.776       6.666       5.555       4.445       3.335       2.224       1.114      3.3313E-03
   7    9.997       8.887       7.776       6.666       5.555       4.445       3.335       2.224       1.114      3.3313E-03
   8    9.997       8.887       7.776       6.666       5.555       4.445       3.335       2.224       1.114      3.3313E-03
   9    9.997       8.887       7.776       6.666       5.555       4.445       3.335       2.224       1.114      3.3313E-03
  10    9.997       8.887       7.776       6.666       5.555       4.445       3.335       2.224       1.114      3.3313E-03
1
              HEAD IN LAYER   2 AT END OF TIME STEP  16 IN STRESS PERIOD    3
  ---------------------------------------------------------------------------

            1           2           3           4           5           6           7           8           9          10
 ........................................................................................................................
   1    9.997       8.887       7.776       6.666       5.555       4.445       3.335       2.224       1.114      3.3313E-03
   2    9.997       8.887       7.776       6.666       5.555       4.445       3.335       2.224       1.114      3.3313E-03
   3    9.997       8.887       7.776       6.666       5.555       4.445       3.335       2.224       1.114      3.3313E-03
   4    9.997       8.887       7.776       6.666       5.555       4.445       3.335       2.224       1.114      3.3313E-03
   5    9.997       8.887       7.776       6.666       5.555       4.445       3.335       2.224       1.114      3.3313E-03
   6    9.997       8.887       7.776       6.666       5.555       4.445       3.335       2.224       1.114      3.3313E-03
   7    9.997       8.887       7.776       6.666       5.555       4.445       3.335       2.224       1.114      3.3313E-03
   8    9.997       8.887       7.776       6.666       5.555       4.445       3.335       2.224       1.114      3.3313E-03
   9    9.997       8.887       7.776       6.666       5.555       4.445       3.335       2.224       1.114      3.3313E-03
  10    9.997       8.887       7.776       6.666       5.555       4.445       3.335       2.224       1.114      3.3313E-03
1
              HEAD IN LAYER   3 AT END OF TIME STEP  16 IN STRESS PERIOD    3
  ---------------------------------------------------------------------------

            1           2           3           4           5           6           7           8           9          10
 ........................................................................................................................
   1    9.997       8.887       7.776       6.666       5.555       4.445       3.335       2.224       1.114      3.3313E-03
   2    9.997       8.887       7.776       6.666       5.555       4.445       3.335       2.224       1.114      3.3313E-03
   3    9.997       8.887       7.776       6.666       5.555       4.445       3.335       2.224       1.114      3.3313E-03
   4    9.997       8.887       7.776       6.666       5.555       4.445       3.335       2.224       1.114      3.3313E-03
   5    9.997       8.887       7.776       6.666       5.555       4.445       3.335       2.224       1.114      3.3313E-03
   6    9.997       8.887       7.776       6.666       5.555       4.445       3.335       2.224       1.114      3.3313E-03
   7    9.997       8.887       7.776       6.666       5.555       4.445       3.335       2.224       1.114      3.3313E-03
   8    9.997       8.887       7.776       6.666       5.555       4.445       3.335       2.224       1.114      3.3313E-03
   9    9.997       8.887       7.776       6.666       5.555       4.445       3.335       2.224       1.114      3.3313E-03
  10    9.997       8.887       7.776       6.666       5.555       4.445       3.335       2.224       1.114      3.3313E-03
1
              HEAD IN LAYER   4 AT END OF TIME STEP  16 IN STRESS PERIOD    3
  ---------------------------------------------------------------------------

            1           2           3           4           5           6           7           8           9          10
 ........................................................................................................................
   1    9.997       8.887       7.776       6.666       5.555       4.445       3.335       2.224       1.114      3.3313E-03
   2    9.997       8.887       7.776       6.666       5.555       4.445       3.335       2.224       1.114      3.3313E-03
   3    9.997       8.887       7.776       6.666       5.555       4.445       3.335       2.224       1.114      3.3313E-03
   4    9.997       8.887       7.776       6.666       5.555       4.445       3.335       2.224       1.114      3.3313E-03
   5    9.997       8.887       7.776       6.666       5.555       4.445       3.335       2.224       1.114      3.3313E-03
   6    9.997       8.887       7.776       6.666       5.555       4.445       3.335       2.224       1.114      3.3313E-03
   7    9.997       8.887       7.776       6.666       5.555       4.445       3.335       2.224       1.114      3.3313E-03
   8    9.997       8.887       7.776       6.666       5.555       4.445       3.335       2.224       1.114      3.3313E-03
   9    9.997       8.887       7.776       6.666       5.555       4.445       3.335       2.224       1.114      3.3313E-03
  10    9.997       8.887       7.776       6.666       5.555       4.445       3.335       2.224       1.114      3.3313E-03

 HEAD WILL BE SAVED ON UNIT   51 AT END OF TIME STEP   16, STRESS PERIOD    3

 DRAWDOWN WILL BE SAVED ON UNIT   52 AT END OF TIME STEP   16, STRESS PERIOD    3
1
  VOLUMETRIC BUDGET FOR ENTIRE MODEL AT END OF TIME STEP   16, STRESS PERIOD   3
  ------------------------------------------------------------------------------

     CUMULATIVE VOLUMES      L**3       RATES FOR THIS TIME STEP      L**3/T
     ------------------                 ------------------------

           IN:                                      IN:
           ---                                      ---
             STORAGE =       1.0477E-08               STORAGE =           0.0000
       CONSTANT HEAD =           0.0000         CONSTANT HEAD =           0.0000
               WELLS =           0.0000                 WELLS =           0.0000
     HEAD DEP BOUNDS =       77958.5078       HEAD DEP BOUNDS =         666.3123

            TOTAL IN =       77958.5078              TOTAL IN =         666.3123

          OUT:                                     OUT:
          ----                                     ----
             STORAGE =       5.2387E-08               STORAGE =           0.0000
       CONSTANT HEAD =           0.0000         CONSTANT HEAD =           0.0000
               WELLS =           0.0000                 WELLS =           0.0000
     HEAD DEP BOUNDS =       77952.2578       HEAD DEP BOUNDS =         666.2595

           TOTAL OUT =       77952.2578             TOTAL OUT =         666.2595

            IN - OUT =           6.2500              IN - OUT =       5.2795E-02

 PERCENT DISCREPANCY =           0.01     PERCENT DISCREPANCY =           0.01






         TIME SUMMARY AT END OF TIME STEP   16 IN STRESS PERIOD    3
                    SECONDS     MINUTES      HOURS       DAYS        YEARS
                    -----------------------------------------------------------
   TIME STEP LENGTH  86400.      1440.0      24.000      1.0000     2.73785E-03
 STRESS PERIOD TIME 1.38240E+06  23040.      384.00      16.000     4.38056E-02
         TOTAL TIME 1.01088E+07 1.68480E+05  2808.0      117.00     0.32033    
1
 
 SOLVING FOR HEAD 

 OUTPUT CONTROL FOR STRESS PERIOD    3   TIME STEP   17
    SAVE HEAD FOR ALL LAYERS
    SAVE DRAWDOWN FOR ALL LAYERS
    SAVE BUDGET
    PRINT HEAD FOR ALL LAYERS
    PRINT BUDGET
 UBDSV1 SAVING "         STORAGE" ON UNIT  53 AT TIME STEP 17, STRESS PERIOD   3
 UBDSV2 SAVING "   CONSTANT HEAD" ON UNIT  53 AT TIME STEP 17, STRESS PERIOD   3
 UBDSV1 SAVING "FLOW RIGHT FACE " ON UNIT  53 AT TIME STEP 17, STRESS PERIOD   3
 UBDSV1 SAVING "FLOW FRONT FACE " ON UNIT  53 AT TIME STEP 17, STRESS PERIOD   3
 UBDSV1 SAVING "FLOW LOWER FACE " ON UNIT  53 AT TIME STEP 17, STRESS PERIOD   3
1
              HEAD IN LAYER   1 AT END OF TIME STEP  17 IN STRESS PERIOD    3
  ---------------------------------------------------------------------------

            1           2           3           4           5           6           7           8           9          10
 ........................................................................................................................
   1    9.997       8.887       7.776       6.666       5.555       4.445       3.335       2.224       1.114      3.3313E-03
   2    9.997       8.887       7.776       6.666       5.555       4.445       3.335       2.224       1.114      3.3313E-03
   3    9.997       8.887       7.776       6.666       5.555       4.445       3.335       2.224       1.114      3.3313E-03
   4    9.997       8.887       7.776       6.666       5.555       4.445       3.335       2.224       1.114      3.3313E-03
   5    9.997       8.887       7.776       6.666       5.555       4.445       3.335       2.224       1.114      3.3313E-03
   6    9.997       8.887       7.776       6.666       5.555       4.445       3.335       2.224       1.114      3.3313E-03
   7    9.997       8.887       7.776       6.666       5.555       4.445       3.335       2.224       1.114      3.3313E-03
   8    9.997       8.887       7.776       6.666       5.555       4.445       3.335       2.224       1.114      3.3313E-03
   9    9.997       8.887       7.776       6.666       5.555       4.445       3.335       2.224       1.114      3.3313E-03
  10    9.997       8.887       7.776       6.666       5.555       4.445       3.335       2.224       1.114      3.3313E-03
1
              HEAD IN LAYER   2 AT END OF TIME STEP  17 IN STRESS PERIOD    3
  ---------------------------------------------------------------------------

            1           2           3           4           5           6           7           8           9          10
 ........................................................................................................................
   1    9.997       8.887       7.776       6.666       5.555       4.445       3.335       2.224       1.114      3.3313E-03
   2    9.997       8.887       7.776       6.666       5.555       4.445       3.335       2.224       1.114      3.3313E-03
   3    9.997       8.887       7.776       6.666       5.555       4.445       3.335       2.224       1.114      3.3313E-03
   4    9.997       8.887       7.776       6.666       5.555       4.445       3.335       2.224       1.114      3.3313E-03
   5    9.997       8.887       7.776       6.666       5.555       4.445       3.335       2.224       1.114      3.3313E-03
   6    9.997       8.887       7.776       6.666       5.555       4.445       3.335       2.224       1.114      3.3313E-03
   7    9.997       8.887       7.776       6.666       5.555       4.445       3.335       2.224       1.114      3.3313E-03
   8    9.997       8.887       7.776       6.666       5.555       4.445       3.335       2.224       1.114      3.3313E-03
   9    9.997       8.887       7.776       6.666       5.555       4.445       3.335       2.224       1.114      3.3313E-03
  10    9.997       8.887       7.776       6.666       5.555       4.445       3.335       2.224       1.114      3.3313E-03
1
              HEAD IN LAYER   3 AT END OF TIME STEP  17 IN STRESS PERIOD    3
  ---------------------------------------------------------------------------

            1           2           3           4           5           6           7           8           9          10
 ........................................................................................................................
   1    9.997       8.887       7.776       6.666       5.555       4.445       3.335       2.224       1.114      3.3313E-03
   2    9.997       8.887       7.776       6.666       5.555       4.445       3.335       2.224       1.114      3.3313E-03
   3    9.997       8.887       7.776       6.666       5.555       4.445       3.335       2.224       1.114      3.3313E-03
   4    9.997       8.887       7.776       6.666       5.555       4.445       3.335       2.224       1.114      3.3313E-03
   5    9.997       8.887       7.776       6.666       5.555       4.445       3.335       2.224       1.114      3.3313E-03
   6    9.997       8.887       7.776       6.666       5.555       4.445       3.335       2.224       1.114      3.3313E-03
   7    9.997       8.887       7.776       6.666       5.555       4.445       3.335       2.224       1.114      3.3313E-03
   8    9.997       8.887       7.776       6.666       5.555       4.445       3.335       2.224       1.114      3.3313E-03
   9    9.997       8.887       7.776       6.666       5.555       4.445       3.335       2.224       1.114      3.3313E-03
  10    9.997       8.887       7.776       6.666       5.555       4.445       3.335       2.224       1.114      3.3313E-03
1
              HEAD IN LAYER   4 AT END OF TIME STEP  17 IN STRESS PERIOD    3
  ---------------------------------------------------------------------------

            1           2           3           4           5           6           7           8           9          10
 ........................................................................................................................
   1    9.997       8.887       7.776       6.666       5.555       4.445       3.335       2.224       1.114      3.3313E-03
   2    9.997       8.887       7.776       6.666       5.555       4.445       3.335       2.224       1.114      3.3313E-03
   3    9.997       8.887       7.776       6.666       5.555       4.445       3.335       2.224       1.114      3.3313E-03
   4    9.997       8.887       7.776       6.666       5.555       4.445       3.335       2.224       1.114      3.3313E-03
   5    9.997       8.887       7.776       6.666       5.555       4.445       3.335       2.224       1.114      3.3313E-03
   6    9.997       8.887       7.776       6.666       5.555       4.445       3.335       2.224       1.114      3.3313E-03
   7    9.997       8.887       7.776       6.666       5.555       4.445       3.335       2.224       1.114      3.3313E-03
   8    9.997       8.887       7.776       6.666       5.555       4.445       3.335       2.224       1.114      3.3313E-03
   9    9.997       8.887       7.776       6.666       5.555       4.445       3.335       2.224       1.114      3.3313E-03
  10    9.997       8.887       7.776       6.666       5.555       4.445       3.335       2.224       1.114      3.3313E-03

 HEAD WILL BE SAVED ON UNIT   51 AT END OF TIME STEP   17, STRESS PERIOD    3

 DRAWDOWN WILL BE SAVED ON UNIT   52 AT END OF TIME STEP   17, STRESS PERIOD    3
1
  VOLUMETRIC BUDGET FOR ENTIRE MODEL AT END OF TIME STEP   17, STRESS PERIOD   3
  ------------------------------------------------------------------------------

     CUMULATIVE VOLUMES      L**3       RATES FOR THIS TIME STEP      L**3/T
     ------------------                 ------------------------

           IN:                                      IN:
           ---                                      ---
             STORAGE =       1.0477E-08               STORAGE =           0.0000
       CONSTANT HEAD =           0.0000         CONSTANT HEAD =           0.0000
               WELLS =           0.0000                 WELLS =           0.0000
     HEAD DEP BOUNDS =       78624.8203       HEAD DEP BOUNDS =         666.3123

            TOTAL IN =       78624.8203              TOTAL IN =         666.3123

          OUT:                                     OUT:
          ----                                     ----
             STORAGE =       5.2387E-08               STORAGE =           0.0000
       CONSTANT HEAD =           0.0000         CONSTANT HEAD =           0.0000
               WELLS =           0.0000                 WELLS =           0.0000
     HEAD DEP BOUNDS =       78618.5156       HEAD DEP BOUNDS =         666.2595

           TOTAL OUT =       78618.5156             TOTAL OUT =         666.2595

            IN - OUT =           6.3047              IN - OUT =       5.2795E-02

 PERCENT DISCREPANCY =           0.01     PERCENT DISCREPANCY =           0.01






         TIME SUMMARY AT END OF TIME STEP   17 IN STRESS PERIOD    3
                    SECONDS     MINUTES      HOURS       DAYS        YEARS
                    -----------------------------------------------------------
   TIME STEP LENGTH  86400.      1440.0      24.000      1.0000     2.73785E-03
 STRESS PERIOD TIME 1.46880E+06  24480.      408.00      17.000     4.65435E-02
         TOTAL TIME 1.01952E+07 1.69920E+05  2832.0      118.00     0.32307    
1
 
 SOLVING FOR HEAD 

 OUTPUT CONTROL FOR STRESS PERIOD    3   TIME STEP   18
    SAVE HEAD FOR ALL LAYERS
    SAVE DRAWDOWN FOR ALL LAYERS
    SAVE BUDGET
    PRINT HEAD FOR ALL LAYERS
    PRINT BUDGET
 UBDSV1 SAVING "         STORAGE" ON UNIT  53 AT TIME STEP 18, STRESS PERIOD   3
 UBDSV2 SAVING "   CONSTANT HEAD" ON UNIT  53 AT TIME STEP 18, STRESS PERIOD   3
 UBDSV1 SAVING "FLOW RIGHT FACE " ON UNIT  53 AT TIME STEP 18, STRESS PERIOD   3
 UBDSV1 SAVING "FLOW FRONT FACE " ON UNIT  53 AT TIME STEP 18, STRESS PERIOD   3
 UBDSV1 SAVING "FLOW LOWER FACE " ON UNIT  53 AT TIME STEP 18, STRESS PERIOD   3
1
              HEAD IN LAYER   1 AT END OF TIME STEP  18 IN STRESS PERIOD    3
  ---------------------------------------------------------------------------

            1           2           3           4           5           6           7           8           9          10
 ........................................................................................................................
   1    9.997       8.887       7.776       6.666       5.555       4.445       3.335       2.224       1.114      3.3313E-03
   2    9.997       8.887       7.776       6.666       5.555       4.445       3.335       2.224       1.114      3.3313E-03
   3    9.997       8.887       7.776       6.666       5.555       4.445       3.335       2.224       1.114      3.3313E-03
   4    9.997       8.887       7.776       6.666       5.555       4.445       3.335       2.224       1.114      3.3313E-03
   5    9.997       8.887       7.776       6.666       5.555       4.445       3.335       2.224       1.114      3.3313E-03
   6    9.997       8.887       7.776       6.666       5.555       4.445       3.335       2.224       1.114      3.3313E-03
   7    9.997       8.887       7.776       6.666       5.555       4.445       3.335       2.224       1.114      3.3313E-03
   8    9.997       8.887       7.776       6.666       5.555       4.445       3.335       2.224       1.114      3.3313E-03
   9    9.997       8.887       7.776       6.666       5.555       4.445       3.335       2.224       1.114      3.3313E-03
  10    9.997       8.887       7.776       6.666       5.555       4.445       3.335       2.224       1.114      3.3313E-03
1
              HEAD IN LAYER   2 AT END OF TIME STEP  18 IN STRESS PERIOD    3
  ---------------------------------------------------------------------------

            1           2           3           4           5           6           7           8           9          10
 ........................................................................................................................
   1    9.997       8.887       7.776       6.666       5.555       4.445       3.335       2.224       1.114      3.3313E-03
   2    9.997       8.887       7.776       6.666       5.555       4.445       3.335       2.224       1.114      3.3313E-03
   3    9.997       8.887       7.776       6.666       5.555       4.445       3.335       2.224       1.114      3.3313E-03
   4    9.997       8.887       7.776       6.666       5.555       4.445       3.335       2.224       1.114      3.3313E-03
   5    9.997       8.887       7.776       6.666       5.555       4.445       3.335       2.224       1.114      3.3313E-03
   6    9.997       8.887       7.776       6.666       5.555       4.445       3.335       2.224       1.114      3.3313E-03
   7    9.997       8.887       7.776       6.666       5.555       4.445       3.335       2.224       1.114      3.3313E-03
   8    9.997       8.887       7.776       6.666       5.555       4.445       3.335       2.224       1.114      3.3313E-03
   9    9.997       8.887       7.776       6.666       5.555       4.445       3.335       2.224       1.114      3.3313E-03
  10    9.997       8.887       7.776       6.666       5.555       4.445       3.335       2.224       1.114      3.3313E-03
1
              HEAD IN LAYER   3 AT END OF TIME STEP  18 IN STRESS PERIOD    3
  ---------------------------------------------------------------------------

            1           2           3           4           5           6           7           8           9          10
 ........................................................................................................................
   1    9.997       8.887       7.776       6.666       5.555       4.445       3.335       2.224       1.114      3.3313E-03
   2    9.997       8.887       7.776       6.666       5.555       4.445       3.335       2.224       1.114      3.3313E-03
   3    9.997       8.887       7.776       6.666       5.555       4.445       3.335       2.224       1.114      3.3313E-03
   4    9.997       8.887       7.776       6.666       5.555       4.445       3.335       2.224       1.114      3.3313E-03
   5    9.997       8.887       7.776       6.666       5.555       4.445       3.335       2.224       1.114      3.3313E-03
   6    9.997       8.887       7.776       6.666       5.555       4.445       3.335       2.224       1.114      3.3313E-03
   7    9.997       8.887       7.776       6.666       5.555       4.445       3.335       2.224       1.114      3.3313E-03
   8    9.997       8.887       7.776       6.666       5.555       4.445       3.335       2.224       1.114      3.3313E-03
   9    9.997       8.887       7.776       6.666       5.555       4.445       3.335       2.224       1.114      3.3313E-03
  10    9.997       8.887       7.776       6.666       5.555       4.445       3.335       2.224       1.114      3.3313E-03
1
              HEAD IN LAYER   4 AT END OF TIME STEP  18 IN STRESS PERIOD    3
  ---------------------------------------------------------------------------

            1           2           3           4           5           6           7           8           9          10
 ........................................................................................................................
   1    9.997       8.887       7.776       6.666       5.555       4.445       3.335       2.224       1.114      3.3313E-03
   2    9.997       8.887       7.776       6.666       5.555       4.445       3.335       2.224       1.114      3.3313E-03
   3    9.997       8.887       7.776       6.666       5.555       4.445       3.335       2.224       1.114      3.3313E-03
   4    9.997       8.887       7.776       6.666       5.555       4.445       3.335       2.224       1.114      3.3313E-03
   5    9.997       8.887       7.776       6.666       5.555       4.445       3.335       2.224       1.114      3.3313E-03
   6    9.997       8.887       7.776       6.666       5.555       4.445       3.335       2.224       1.114      3.3313E-03
   7    9.997       8.887       7.776       6.666       5.555       4.445       3.335       2.224       1.114      3.3313E-03
   8    9.997       8.887       7.776       6.666       5.555       4.445       3.335       2.224       1.114      3.3313E-03
   9    9.997       8.887       7.776       6.666       5.555       4.445       3.335       2.224       1.114      3.3313E-03
  10    9.997       8.887       7.776       6.666       5.555       4.445       3.335       2.224       1.114      3.3313E-03

 HEAD WILL BE SAVED ON UNIT   51 AT END OF TIME STEP   18, STRESS PERIOD    3

 DRAWDOWN WILL BE SAVED ON UNIT   52 AT END OF TIME STEP   18, STRESS PERIOD    3
1
  VOLUMETRIC BUDGET FOR ENTIRE MODEL AT END OF TIME STEP   18, STRESS PERIOD   3
  ------------------------------------------------------------------------------

     CUMULATIVE VOLUMES      L**3       RATES FOR THIS TIME STEP      L**3/T
     ------------------                 ------------------------

           IN:                                      IN:
           ---                                      ---
             STORAGE =       1.0477E-08               STORAGE =           0.0000
       CONSTANT HEAD =           0.0000         CONSTANT HEAD =           0.0000
               WELLS =           0.0000                 WELLS =           0.0000
     HEAD DEP BOUNDS =       79291.1328       HEAD DEP BOUNDS =         666.3123

            TOTAL IN =       79291.1328              TOTAL IN =         666.3123

          OUT:                                     OUT:
          ----                                     ----
             STORAGE =       5.2387E-08               STORAGE =           0.0000
       CONSTANT HEAD =           0.0000         CONSTANT HEAD =           0.0000
               WELLS =           0.0000                 WELLS =           0.0000
     HEAD DEP BOUNDS =       79284.7734       HEAD DEP BOUNDS =         666.2595

           TOTAL OUT =       79284.7734             TOTAL OUT =         666.2595

            IN - OUT =           6.3594              IN - OUT =       5.2795E-02

 PERCENT DISCREPANCY =           0.01     PERCENT DISCREPANCY =           0.01






         TIME SUMMARY AT END OF TIME STEP   18 IN STRESS PERIOD    3
                    SECONDS     MINUTES      HOURS       DAYS        YEARS
                    -----------------------------------------------------------
   TIME STEP LENGTH  86400.      1440.0      24.000      1.0000     2.73785E-03
 STRESS PERIOD TIME 1.55520E+06  25920.      432.00      18.000     4.92813E-02
         TOTAL TIME 1.02816E+07 1.71360E+05  2856.0      119.00     0.32580    
1
 
 SOLVING FOR HEAD 

 OUTPUT CONTROL FOR STRESS PERIOD    3   TIME STEP   19
    SAVE HEAD FOR ALL LAYERS
    SAVE DRAWDOWN FOR ALL LAYERS
    SAVE BUDGET
    PRINT HEAD FOR ALL LAYERS
    PRINT BUDGET
 UBDSV1 SAVING "         STORAGE" ON UNIT  53 AT TIME STEP 19, STRESS PERIOD   3
 UBDSV2 SAVING "   CONSTANT HEAD" ON UNIT  53 AT TIME STEP 19, STRESS PERIOD   3
 UBDSV1 SAVING "FLOW RIGHT FACE " ON UNIT  53 AT TIME STEP 19, STRESS PERIOD   3
 UBDSV1 SAVING "FLOW FRONT FACE " ON UNIT  53 AT TIME STEP 19, STRESS PERIOD   3
 UBDSV1 SAVING "FLOW LOWER FACE " ON UNIT  53 AT TIME STEP 19, STRESS PERIOD   3
1
              HEAD IN LAYER   1 AT END OF TIME STEP  19 IN STRESS PERIOD    3
  ---------------------------------------------------------------------------

            1           2           3           4           5           6           7           8           9          10
 ........................................................................................................................
   1    9.997       8.887       7.776       6.666       5.555       4.445       3.335       2.224       1.114      3.3313E-03
   2    9.997       8.887       7.776       6.666       5.555       4.445       3.335       2.224       1.114      3.3313E-03
   3    9.997       8.887       7.776       6.666       5.555       4.445       3.335       2.224       1.114      3.3313E-03
   4    9.997       8.887       7.776       6.666       5.555       4.445       3.335       2.224       1.114      3.3313E-03
   5    9.997       8.887       7.776       6.666       5.555       4.445       3.335       2.224       1.114      3.3313E-03
   6    9.997       8.887       7.776       6.666       5.555       4.445       3.335       2.224       1.114      3.3313E-03
   7    9.997       8.887       7.776       6.666       5.555       4.445       3.335       2.224       1.114      3.3313E-03
   8    9.997       8.887       7.776       6.666       5.555       4.445       3.335       2.224       1.114      3.3313E-03
   9    9.997       8.887       7.776       6.666       5.555       4.445       3.335       2.224       1.114      3.3313E-03
  10    9.997       8.887       7.776       6.666       5.555       4.445       3.335       2.224       1.114      3.3313E-03
1
              HEAD IN LAYER   2 AT END OF TIME STEP  19 IN STRESS PERIOD    3
  ---------------------------------------------------------------------------

            1           2           3           4           5           6           7           8           9          10
 ........................................................................................................................
   1    9.997       8.887       7.776       6.666       5.555       4.445       3.335       2.224       1.114      3.3313E-03
   2    9.997       8.887       7.776       6.666       5.555       4.445       3.335       2.224       1.114      3.3313E-03
   3    9.997       8.887       7.776       6.666       5.555       4.445       3.335       2.224       1.114      3.3313E-03
   4    9.997       8.887       7.776       6.666       5.555       4.445       3.335       2.224       1.114      3.3313E-03
   5    9.997       8.887       7.776       6.666       5.555       4.445       3.335       2.224       1.114      3.3313E-03
   6    9.997       8.887       7.776       6.666       5.555       4.445       3.335       2.224       1.114      3.3313E-03
   7    9.997       8.887       7.776       6.666       5.555       4.445       3.335       2.224       1.114      3.3313E-03
   8    9.997       8.887       7.776       6.666       5.555       4.445       3.335       2.224       1.114      3.3313E-03
   9    9.997       8.887       7.776       6.666       5.555       4.445       3.335       2.224       1.114      3.3313E-03
  10    9.997       8.887       7.776       6.666       5.555       4.445       3.335       2.224       1.114      3.3313E-03
1
              HEAD IN LAYER   3 AT END OF TIME STEP  19 IN STRESS PERIOD    3
  ---------------------------------------------------------------------------

            1           2           3           4           5           6           7           8           9          10
 ........................................................................................................................
   1    9.997       8.887       7.776       6.666       5.555       4.445       3.335       2.224       1.114      3.3313E-03
   2    9.997       8.887       7.776       6.666       5.555       4.445       3.335       2.224       1.114      3.3313E-03
   3    9.997       8.887       7.776       6.666       5.555       4.445       3.335       2.224       1.114      3.3313E-03
   4    9.997       8.887       7.776       6.666       5.555       4.445       3.335       2.224       1.114      3.3313E-03
   5    9.997       8.887       7.776       6.666       5.555       4.445       3.335       2.224       1.114      3.3313E-03
   6    9.997       8.887       7.776       6.666       5.555       4.445       3.335       2.224       1.114      3.3313E-03
   7    9.997       8.887       7.776       6.666       5.555       4.445       3.335       2.224       1.114      3.3313E-03
   8    9.997       8.887       7.776       6.666       5.555       4.445       3.335       2.224       1.114      3.3313E-03
   9    9.997       8.887       7.776       6.666       5.555       4.445       3.335       2.224       1.114      3.3313E-03
  10    9.997       8.887       7.776       6.666       5.555       4.445       3.335       2.224       1.114      3.3313E-03
1
              HEAD IN LAYER   4 AT END OF TIME STEP  19 IN STRESS PERIOD    3
  ---------------------------------------------------------------------------

            1           2           3           4           5           6           7           8           9          10
 ........................................................................................................................
   1    9.997       8.887       7.776       6.666       5.555       4.445       3.335       2.224       1.114      3.3313E-03
   2    9.997       8.887       7.776       6.666       5.555       4.445       3.335       2.224       1.114      3.3313E-03
   3    9.997       8.887       7.776       6.666       5.555       4.445       3.335       2.224       1.114      3.3313E-03
   4    9.997       8.887       7.776       6.666       5.555       4.445       3.335       2.224       1.114      3.3313E-03
   5    9.997       8.887       7.776       6.666       5.555       4.445       3.335       2.224       1.114      3.3313E-03
   6    9.997       8.887       7.776       6.666       5.555       4.445       3.335       2.224       1.114      3.3313E-03
   7    9.997       8.887       7.776       6.666       5.555       4.445       3.335       2.224       1.114      3.3313E-03
   8    9.997       8.887       7.776       6.666       5.555       4.445       3.335       2.224       1.114      3.3313E-03
   9    9.997       8.887       7.776       6.666       5.555       4.445       3.335       2.224       1.114      3.3313E-03
  10    9.997       8.887       7.776       6.666       5.555       4.445       3.335       2.224       1.114      3.3313E-03

 HEAD WILL BE SAVED ON UNIT   51 AT END OF TIME STEP   19, STRESS PERIOD    3

 DRAWDOWN WILL BE SAVED ON UNIT   52 AT END OF TIME STEP   19, STRESS PERIOD    3
1
  VOLUMETRIC BUDGET FOR ENTIRE MODEL AT END OF TIME STEP   19, STRESS PERIOD   3
  ------------------------------------------------------------------------------

     CUMULATIVE VOLUMES      L**3       RATES FOR THIS TIME STEP      L**3/T
     ------------------                 ------------------------

           IN:                                      IN:
           ---                                      ---
             STORAGE =       1.0477E-08               STORAGE =           0.0000
       CONSTANT HEAD =           0.0000         CONSTANT HEAD =           0.0000
               WELLS =           0.0000                 WELLS =           0.0000
     HEAD DEP BOUNDS =       79957.4453       HEAD DEP BOUNDS =         666.3123

            TOTAL IN =       79957.4453              TOTAL IN =         666.3123

          OUT:                                     OUT:
          ----                                     ----
             STORAGE =       5.2387E-08               STORAGE =           0.0000
       CONSTANT HEAD =           0.0000         CONSTANT HEAD =           0.0000
               WELLS =           0.0000                 WELLS =           0.0000
     HEAD DEP BOUNDS =       79951.0312       HEAD DEP BOUNDS =         666.2595

           TOTAL OUT =       79951.0312             TOTAL OUT =         666.2595

            IN - OUT =           6.4141              IN - OUT =       5.2795E-02

 PERCENT DISCREPANCY =           0.01     PERCENT DISCREPANCY =           0.01






         TIME SUMMARY AT END OF TIME STEP   19 IN STRESS PERIOD    3
                    SECONDS     MINUTES      HOURS       DAYS        YEARS
                    -----------------------------------------------------------
   TIME STEP LENGTH  86400.      1440.0      24.000      1.0000     2.73785E-03
 STRESS PERIOD TIME 1.64160E+06  27360.      456.00      19.000     5.20192E-02
         TOTAL TIME 1.03680E+07 1.72800E+05  2880.0      120.00     0.32854    
1
 
 SOLVING FOR HEAD 

 OUTPUT CONTROL FOR STRESS PERIOD    3   TIME STEP   20
    SAVE HEAD FOR ALL LAYERS
    SAVE DRAWDOWN FOR ALL LAYERS
    SAVE BUDGET
    PRINT HEAD FOR ALL LAYERS
    PRINT BUDGET
 UBDSV1 SAVING "         STORAGE" ON UNIT  53 AT TIME STEP 20, STRESS PERIOD   3
 UBDSV2 SAVING "   CONSTANT HEAD" ON UNIT  53 AT TIME STEP 20, STRESS PERIOD   3
 UBDSV1 SAVING "FLOW RIGHT FACE " ON UNIT  53 AT TIME STEP 20, STRESS PERIOD   3
 UBDSV1 SAVING "FLOW FRONT FACE " ON UNIT  53 AT TIME STEP 20, STRESS PERIOD   3
 UBDSV1 SAVING "FLOW LOWER FACE " ON UNIT  53 AT TIME STEP 20, STRESS PERIOD   3
1
              HEAD IN LAYER   1 AT END OF TIME STEP  20 IN STRESS PERIOD    3
  ---------------------------------------------------------------------------

            1           2           3           4           5           6           7           8           9          10
 ........................................................................................................................
   1    9.997       8.887       7.776       6.666       5.555       4.445       3.335       2.224       1.114      3.3313E-03
   2    9.997       8.887       7.776       6.666       5.555       4.445       3.335       2.224       1.114      3.3313E-03
   3    9.997       8.887       7.776       6.666       5.555       4.445       3.335       2.224       1.114      3.3313E-03
   4    9.997       8.887       7.776       6.666       5.555       4.445       3.335       2.224       1.114      3.3313E-03
   5    9.997       8.887       7.776       6.666       5.555       4.445       3.335       2.224       1.114      3.3313E-03
   6    9.997       8.887       7.776       6.666       5.555       4.445       3.335       2.224       1.114      3.3313E-03
   7    9.997       8.887       7.776       6.666       5.555       4.445       3.335       2.224       1.114      3.3313E-03
   8    9.997       8.887       7.776       6.666       5.555       4.445       3.335       2.224       1.114      3.3313E-03
   9    9.997       8.887       7.776       6.666       5.555       4.445       3.335       2.224       1.114      3.3313E-03
  10    9.997       8.887       7.776       6.666       5.555       4.445       3.335       2.224       1.114      3.3313E-03
1
              HEAD IN LAYER   2 AT END OF TIME STEP  20 IN STRESS PERIOD    3
  ---------------------------------------------------------------------------

            1           2           3           4           5           6           7           8           9          10
 ........................................................................................................................
   1    9.997       8.887       7.776       6.666       5.555       4.445       3.335       2.224       1.114      3.3313E-03
   2    9.997       8.887       7.776       6.666       5.555       4.445       3.335       2.224       1.114      3.3313E-03
   3    9.997       8.887       7.776       6.666       5.555       4.445       3.335       2.224       1.114      3.3313E-03
   4    9.997       8.887       7.776       6.666       5.555       4.445       3.335       2.224       1.114      3.3313E-03
   5    9.997       8.887       7.776       6.666       5.555       4.445       3.335       2.224       1.114      3.3313E-03
   6    9.997       8.887       7.776       6.666       5.555       4.445       3.335       2.224       1.114      3.3313E-03
   7    9.997       8.887       7.776       6.666       5.555       4.445       3.335       2.224       1.114      3.3313E-03
   8    9.997       8.887       7.776       6.666       5.555       4.445       3.335       2.224       1.114      3.3313E-03
   9    9.997       8.887       7.776       6.666       5.555       4.445       3.335       2.224       1.114      3.3313E-03
  10    9.997       8.887       7.776       6.666       5.555       4.445       3.335       2.224       1.114      3.3313E-03
1
              HEAD IN LAYER   3 AT END OF TIME STEP  20 IN STRESS PERIOD    3
  ---------------------------------------------------------------------------

            1           2           3           4           5           6           7           8           9          10
 ........................................................................................................................
   1    9.997       8.887       7.776       6.666       5.555       4.445       3.335       2.224       1.114      3.3313E-03
   2    9.997       8.887       7.776       6.666       5.555       4.445       3.335       2.224       1.114      3.3313E-03
   3    9.997       8.887       7.776       6.666       5.555       4.445       3.335       2.224       1.114      3.3313E-03
   4    9.997       8.887       7.776       6.666       5.555       4.445       3.335       2.224       1.114      3.3313E-03
   5    9.997       8.887       7.776       6.666       5.555       4.445       3.335       2.224       1.114      3.3313E-03
   6    9.997       8.887       7.776       6.666       5.555       4.445       3.335       2.224       1.114      3.3313E-03
   7    9.997       8.887       7.776       6.666       5.555       4.445       3.335       2.224       1.114      3.3313E-03
   8    9.997       8.887       7.776       6.666       5.555       4.445       3.335       2.224       1.114      3.3313E-03
   9    9.997       8.887       7.776       6.666       5.555       4.445       3.335       2.224       1.114      3.3313E-03
  10    9.997       8.887       7.776       6.666       5.555       4.445       3.335       2.224       1.114      3.3313E-03
1
              HEAD IN LAYER   4 AT END OF TIME STEP  20 IN STRESS PERIOD    3
  ---------------------------------------------------------------------------

            1           2           3           4           5           6           7           8           9          10
 ........................................................................................................................
   1    9.997       8.887       7.776       6.666       5.555       4.445       3.335       2.224       1.114      3.3313E-03
   2    9.997       8.887       7.776       6.666       5.555       4.445       3.335       2.224       1.114      3.3313E-03
   3    9.997       8.887       7.776       6.666       5.555       4.445       3.335       2.224       1.114      3.3313E-03
   4    9.997       8.887       7.776       6.666       5.555       4.445       3.335       2.224       1.114      3.3313E-03
   5    9.997       8.887       7.776       6.666       5.555       4.445       3.335       2.224       1.114      3.3313E-03
   6    9.997       8.887       7.776       6.666       5.555       4.445       3.335       2.224       1.114      3.3313E-03
   7    9.997       8.887       7.776       6.666       5.555       4.445       3.335       2.224       1.114      3.3313E-03
   8    9.997       8.887       7.776       6.666       5.555       4.445       3.335       2.224       1.114      3.3313E-03
   9    9.997       8.887       7.776       6.666       5.555       4.445       3.335       2.224       1.114      3.3313E-03
  10    9.997       8.887       7.776       6.666       5.555       4.445       3.335       2.224       1.114      3.3313E-03

 HEAD WILL BE SAVED ON UNIT   51 AT END OF TIME STEP   20, STRESS PERIOD    3

 DRAWDOWN WILL BE SAVED ON UNIT   52 AT END OF TIME STEP   20, STRESS PERIOD    3
1
  VOLUMETRIC BUDGET FOR ENTIRE MODEL AT END OF TIME STEP   20, STRESS PERIOD   3
  ------------------------------------------------------------------------------

     CUMULATIVE VOLUMES      L**3       RATES FOR THIS TIME STEP      L**3/T
     ------------------                 ------------------------

           IN:                                      IN:
           ---                                      ---
             STORAGE =       1.0477E-08               STORAGE =           0.0000
       CONSTANT HEAD =           0.0000         CONSTANT HEAD =           0.0000
               WELLS =           0.0000                 WELLS =           0.0000
     HEAD DEP BOUNDS =       80623.7578       HEAD DEP BOUNDS =         666.3123

            TOTAL IN =       80623.7578              TOTAL IN =         666.3123

          OUT:                                     OUT:
          ----                                     ----
             STORAGE =       5.2387E-08               STORAGE =           0.0000
       CONSTANT HEAD =           0.0000         CONSTANT HEAD =           0.0000
               WELLS =           0.0000                 WELLS =           0.0000
     HEAD DEP BOUNDS =       80617.2891       HEAD DEP BOUNDS =         666.2595

           TOTAL OUT =       80617.2891             TOTAL OUT =         666.2595

            IN - OUT =           6.4688              IN - OUT =       5.2795E-02

 PERCENT DISCREPANCY =           0.01     PERCENT DISCREPANCY =           0.01






         TIME SUMMARY AT END OF TIME STEP   20 IN STRESS PERIOD    3
                    SECONDS     MINUTES      HOURS       DAYS        YEARS
                    -----------------------------------------------------------
   TIME STEP LENGTH  86400.      1440.0      24.000      1.0000     2.73785E-03
 STRESS PERIOD TIME 1.72800E+06  28800.      480.00      20.000     5.47570E-02
         TOTAL TIME 1.04544E+07 1.74240E+05  2904.0      121.00     0.33128    
1
 
 SOLVING FOR HEAD 

 OUTPUT CONTROL FOR STRESS PERIOD    3   TIME STEP   21
    SAVE HEAD FOR ALL LAYERS
    SAVE DRAWDOWN FOR ALL LAYERS
    SAVE BUDGET
    PRINT HEAD FOR ALL LAYERS
    PRINT BUDGET
 UBDSV1 SAVING "         STORAGE" ON UNIT  53 AT TIME STEP 21, STRESS PERIOD   3
 UBDSV2 SAVING "   CONSTANT HEAD" ON UNIT  53 AT TIME STEP 21, STRESS PERIOD   3
 UBDSV1 SAVING "FLOW RIGHT FACE " ON UNIT  53 AT TIME STEP 21, STRESS PERIOD   3
 UBDSV1 SAVING "FLOW FRONT FACE " ON UNIT  53 AT TIME STEP 21, STRESS PERIOD   3
 UBDSV1 SAVING "FLOW LOWER FACE " ON UNIT  53 AT TIME STEP 21, STRESS PERIOD   3
1
              HEAD IN LAYER   1 AT END OF TIME STEP  21 IN STRESS PERIOD    3
  ---------------------------------------------------------------------------

            1           2           3           4           5           6           7           8           9          10
 ........................................................................................................................
   1    9.997       8.887       7.776       6.666       5.555       4.445       3.335       2.224       1.114      3.3313E-03
   2    9.997       8.887       7.776       6.666       5.555       4.445       3.335       2.224       1.114      3.3313E-03
   3    9.997       8.887       7.776       6.666       5.555       4.445       3.335       2.224       1.114      3.3313E-03
   4    9.997       8.887       7.776       6.666       5.555       4.445       3.335       2.224       1.114      3.3313E-03
   5    9.997       8.887       7.776       6.666       5.555       4.445       3.335       2.224       1.114      3.3313E-03
   6    9.997       8.887       7.776       6.666       5.555       4.445       3.335       2.224       1.114      3.3313E-03
   7    9.997       8.887       7.776       6.666       5.555       4.445       3.335       2.224       1.114      3.3313E-03
   8    9.997       8.887       7.776       6.666       5.555       4.445       3.335       2.224       1.114      3.3313E-03
   9    9.997       8.887       7.776       6.666       5.555       4.445       3.335       2.224       1.114      3.3313E-03
  10    9.997       8.887       7.776       6.666       5.555       4.445       3.335       2.224       1.114      3.3313E-03
1
              HEAD IN LAYER   2 AT END OF TIME STEP  21 IN STRESS PERIOD    3
  ---------------------------------------------------------------------------

            1           2           3           4           5           6           7           8           9          10
 ........................................................................................................................
   1    9.997       8.887       7.776       6.666       5.555       4.445       3.335       2.224       1.114      3.3313E-03
   2    9.997       8.887       7.776       6.666       5.555       4.445       3.335       2.224       1.114      3.3313E-03
   3    9.997       8.887       7.776       6.666       5.555       4.445       3.335       2.224       1.114      3.3313E-03
   4    9.997       8.887       7.776       6.666       5.555       4.445       3.335       2.224       1.114      3.3313E-03
   5    9.997       8.887       7.776       6.666       5.555       4.445       3.335       2.224       1.114      3.3313E-03
   6    9.997       8.887       7.776       6.666       5.555       4.445       3.335       2.224       1.114      3.3313E-03
   7    9.997       8.887       7.776       6.666       5.555       4.445       3.335       2.224       1.114      3.3313E-03
   8    9.997       8.887       7.776       6.666       5.555       4.445       3.335       2.224       1.114      3.3313E-03
   9    9.997       8.887       7.776       6.666       5.555       4.445       3.335       2.224       1.114      3.3313E-03
  10    9.997       8.887       7.776       6.666       5.555       4.445       3.335       2.224       1.114      3.3313E-03
1
              HEAD IN LAYER   3 AT END OF TIME STEP  21 IN STRESS PERIOD    3
  ---------------------------------------------------------------------------

            1           2           3           4           5           6           7           8           9          10
 ........................................................................................................................
   1    9.997       8.887       7.776       6.666       5.555       4.445       3.335       2.224       1.114      3.3313E-03
   2    9.997       8.887       7.776       6.666       5.555       4.445       3.335       2.224       1.114      3.3313E-03
   3    9.997       8.887       7.776       6.666       5.555       4.445       3.335       2.224       1.114      3.3313E-03
   4    9.997       8.887       7.776       6.666       5.555       4.445       3.335       2.224       1.114      3.3313E-03
   5    9.997       8.887       7.776       6.666       5.555       4.445       3.335       2.224       1.114      3.3313E-03
   6    9.997       8.887       7.776       6.666       5.555       4.445       3.335       2.224       1.114      3.3313E-03
   7    9.997       8.887       7.776       6.666       5.555       4.445       3.335       2.224       1.114      3.3313E-03
   8    9.997       8.887       7.776       6.666       5.555       4.445       3.335       2.224       1.114      3.3313E-03
   9    9.997       8.887       7.776       6.666       5.555       4.445       3.335       2.224       1.114      3.3313E-03
  10    9.997       8.887       7.776       6.666       5.555       4.445       3.335       2.224       1.114      3.3313E-03
1
              HEAD IN LAYER   4 AT END OF TIME STEP  21 IN STRESS PERIOD    3
  ---------------------------------------------------------------------------

            1           2           3           4           5           6           7           8           9          10
 ........................................................................................................................
   1    9.997       8.887       7.776       6.666       5.555       4.445       3.335       2.224       1.114      3.3313E-03
   2    9.997       8.887       7.776       6.666       5.555       4.445       3.335       2.224       1.114      3.3313E-03
   3    9.997       8.887       7.776       6.666       5.555       4.445       3.335       2.224       1.114      3.3313E-03
   4    9.997       8.887       7.776       6.666       5.555       4.445       3.335       2.224       1.114      3.3313E-03
   5    9.997       8.887       7.776       6.666       5.555       4.445       3.335       2.224       1.114      3.3313E-03
   6    9.997       8.887       7.776       6.666       5.555       4.445       3.335       2.224       1.114      3.3313E-03
   7    9.997       8.887       7.776       6.666       5.555       4.445       3.335       2.224       1.114      3.3313E-03
   8    9.997       8.887       7.776       6.666       5.555       4.445       3.335       2.224       1.114      3.3313E-03
   9    9.997       8.887       7.776       6.666       5.555       4.445       3.335       2.224       1.114      3.3313E-03
  10    9.997       8.887       7.776       6.666       5.555       4.445       3.335       2.224       1.114      3.3313E-03

 HEAD WILL BE SAVED ON UNIT   51 AT END OF TIME STEP   21, STRESS PERIOD    3

 DRAWDOWN WILL BE SAVED ON UNIT   52 AT END OF TIME STEP   21, STRESS PERIOD    3
1
  VOLUMETRIC BUDGET FOR ENTIRE MODEL AT END OF TIME STEP   21, STRESS PERIOD   3
  ------------------------------------------------------------------------------

     CUMULATIVE VOLUMES      L**3       RATES FOR THIS TIME STEP      L**3/T
     ------------------                 ------------------------

           IN:                                      IN:
           ---                                      ---
             STORAGE =       1.0477E-08               STORAGE =           0.0000
       CONSTANT HEAD =           0.0000         CONSTANT HEAD =           0.0000
               WELLS =           0.0000                 WELLS =           0.0000
     HEAD DEP BOUNDS =       81290.0703       HEAD DEP BOUNDS =         666.3123

            TOTAL IN =       81290.0703              TOTAL IN =         666.3123

          OUT:                                     OUT:
          ----                                     ----
             STORAGE =       5.2387E-08               STORAGE =           0.0000
       CONSTANT HEAD =           0.0000         CONSTANT HEAD =           0.0000
               WELLS =           0.0000                 WELLS =           0.0000
     HEAD DEP BOUNDS =       81283.5469       HEAD DEP BOUNDS =         666.2595

           TOTAL OUT =       81283.5469             TOTAL OUT =         666.2595

            IN - OUT =           6.5234              IN - OUT =       5.2795E-02

 PERCENT DISCREPANCY =           0.01     PERCENT DISCREPANCY =           0.01






         TIME SUMMARY AT END OF TIME STEP   21 IN STRESS PERIOD    3
                    SECONDS     MINUTES      HOURS       DAYS        YEARS
                    -----------------------------------------------------------
   TIME STEP LENGTH  86400.      1440.0      24.000      1.0000     2.73785E-03
 STRESS PERIOD TIME 1.81440E+06  30240.      504.00      21.000     5.74949E-02
         TOTAL TIME 1.05408E+07 1.75680E+05  2928.0      122.00     0.33402    
1
 
 SOLVING FOR HEAD 

 OUTPUT CONTROL FOR STRESS PERIOD    3   TIME STEP   22
    SAVE HEAD FOR ALL LAYERS
    SAVE DRAWDOWN FOR ALL LAYERS
    SAVE BUDGET
    PRINT HEAD FOR ALL LAYERS
    PRINT BUDGET
 UBDSV1 SAVING "         STORAGE" ON UNIT  53 AT TIME STEP 22, STRESS PERIOD   3
 UBDSV2 SAVING "   CONSTANT HEAD" ON UNIT  53 AT TIME STEP 22, STRESS PERIOD   3
 UBDSV1 SAVING "FLOW RIGHT FACE " ON UNIT  53 AT TIME STEP 22, STRESS PERIOD   3
 UBDSV1 SAVING "FLOW FRONT FACE " ON UNIT  53 AT TIME STEP 22, STRESS PERIOD   3
 UBDSV1 SAVING "FLOW LOWER FACE " ON UNIT  53 AT TIME STEP 22, STRESS PERIOD   3
1
              HEAD IN LAYER   1 AT END OF TIME STEP  22 IN STRESS PERIOD    3
  ---------------------------------------------------------------------------

            1           2           3           4           5           6           7           8           9          10
 ........................................................................................................................
   1    9.997       8.887       7.776       6.666       5.555       4.445       3.335       2.224       1.114      3.3313E-03
   2    9.997       8.887       7.776       6.666       5.555       4.445       3.335       2.224       1.114      3.3313E-03
   3    9.997       8.887       7.776       6.666       5.555       4.445       3.335       2.224       1.114      3.3313E-03
   4    9.997       8.887       7.776       6.666       5.555       4.445       3.335       2.224       1.114      3.3313E-03
   5    9.997       8.887       7.776       6.666       5.555       4.445       3.335       2.224       1.114      3.3313E-03
   6    9.997       8.887       7.776       6.666       5.555       4.445       3.335       2.224       1.114      3.3313E-03
   7    9.997       8.887       7.776       6.666       5.555       4.445       3.335       2.224       1.114      3.3313E-03
   8    9.997       8.887       7.776       6.666       5.555       4.445       3.335       2.224       1.114      3.3313E-03
   9    9.997       8.887       7.776       6.666       5.555       4.445       3.335       2.224       1.114      3.3313E-03
  10    9.997       8.887       7.776       6.666       5.555       4.445       3.335       2.224       1.114      3.3313E-03
1
              HEAD IN LAYER   2 AT END OF TIME STEP  22 IN STRESS PERIOD    3
  ---------------------------------------------------------------------------

            1           2           3           4           5           6           7           8           9          10
 ........................................................................................................................
   1    9.997       8.887       7.776       6.666       5.555       4.445       3.335       2.224       1.114      3.3313E-03
   2    9.997       8.887       7.776       6.666       5.555       4.445       3.335       2.224       1.114      3.3313E-03
   3    9.997       8.887       7.776       6.666       5.555       4.445       3.335       2.224       1.114      3.3313E-03
   4    9.997       8.887       7.776       6.666       5.555       4.445       3.335       2.224       1.114      3.3313E-03
   5    9.997       8.887       7.776       6.666       5.555       4.445       3.335       2.224       1.114      3.3313E-03
   6    9.997       8.887       7.776       6.666       5.555       4.445       3.335       2.224       1.114      3.3313E-03
   7    9.997       8.887       7.776       6.666       5.555       4.445       3.335       2.224       1.114      3.3313E-03
   8    9.997       8.887       7.776       6.666       5.555       4.445       3.335       2.224       1.114      3.3313E-03
   9    9.997       8.887       7.776       6.666       5.555       4.445       3.335       2.224       1.114      3.3313E-03
  10    9.997       8.887       7.776       6.666       5.555       4.445       3.335       2.224       1.114      3.3313E-03
1
              HEAD IN LAYER   3 AT END OF TIME STEP  22 IN STRESS PERIOD    3
  ---------------------------------------------------------------------------

            1           2           3           4           5           6           7           8           9          10
 ........................................................................................................................
   1    9.997       8.887       7.776       6.666       5.555       4.445       3.335       2.224       1.114      3.3313E-03
   2    9.997       8.887       7.776       6.666       5.555       4.445       3.335       2.224       1.114      3.3313E-03
   3    9.997       8.887       7.776       6.666       5.555       4.445       3.335       2.224       1.114      3.3313E-03
   4    9.997       8.887       7.776       6.666       5.555       4.445       3.335       2.224       1.114      3.3313E-03
   5    9.997       8.887       7.776       6.666       5.555       4.445       3.335       2.224       1.114      3.3313E-03
   6    9.997       8.887       7.776       6.666       5.555       4.445       3.335       2.224       1.114      3.3313E-03
   7    9.997       8.887       7.776       6.666       5.555       4.445       3.335       2.224       1.114      3.3313E-03
   8    9.997       8.887       7.776       6.666       5.555       4.445       3.335       2.224       1.114      3.3313E-03
   9    9.997       8.887       7.776       6.666       5.555       4.445       3.335       2.224       1.114      3.3313E-03
  10    9.997       8.887       7.776       6.666       5.555       4.445       3.335       2.224       1.114      3.3313E-03
1
              HEAD IN LAYER   4 AT END OF TIME STEP  22 IN STRESS PERIOD    3
  ---------------------------------------------------------------------------

            1           2           3           4           5           6           7           8           9          10
 ........................................................................................................................
   1    9.997       8.887       7.776       6.666       5.555       4.445       3.335       2.224       1.114      3.3313E-03
   2    9.997       8.887       7.776       6.666       5.555       4.445       3.335       2.224       1.114      3.3313E-03
   3    9.997       8.887       7.776       6.666       5.555       4.445       3.335       2.224       1.114      3.3313E-03
   4    9.997       8.887       7.776       6.666       5.555       4.445       3.335       2.224       1.114      3.3313E-03
   5    9.997       8.887       7.776       6.666       5.555       4.445       3.335       2.224       1.114      3.3313E-03
   6    9.997       8.887       7.776       6.666       5.555       4.445       3.335       2.224       1.114      3.3313E-03
   7    9.997       8.887       7.776       6.666       5.555       4.445       3.335       2.224       1.114      3.3313E-03
   8    9.997       8.887       7.776       6.666       5.555       4.445       3.335       2.224       1.114      3.3313E-03
   9    9.997       8.887       7.776       6.666       5.555       4.445       3.335       2.224       1.114      3.3313E-03
  10    9.997       8.887       7.776       6.666       5.555       4.445       3.335       2.224       1.114      3.3313E-03

 HEAD WILL BE SAVED ON UNIT   51 AT END OF TIME STEP   22, STRESS PERIOD    3

 DRAWDOWN WILL BE SAVED ON UNIT   52 AT END OF TIME STEP   22, STRESS PERIOD    3
1
  VOLUMETRIC BUDGET FOR ENTIRE MODEL AT END OF TIME STEP   22, STRESS PERIOD   3
  ------------------------------------------------------------------------------

     CUMULATIVE VOLUMES      L**3       RATES FOR THIS TIME STEP      L**3/T
     ------------------                 ------------------------

           IN:                                      IN:
           ---                                      ---
             STORAGE =       1.0477E-08               STORAGE =           0.0000
       CONSTANT HEAD =           0.0000         CONSTANT HEAD =           0.0000
               WELLS =           0.0000                 WELLS =           0.0000
     HEAD DEP BOUNDS =       81956.3828       HEAD DEP BOUNDS =         666.3123

            TOTAL IN =       81956.3828              TOTAL IN =         666.3123

          OUT:                                     OUT:
          ----                                     ----
             STORAGE =       5.2387E-08               STORAGE =           0.0000
       CONSTANT HEAD =           0.0000         CONSTANT HEAD =           0.0000
               WELLS =           0.0000                 WELLS =           0.0000
     HEAD DEP BOUNDS =       81949.8047       HEAD DEP BOUNDS =         666.2595

           TOTAL OUT =       81949.8047             TOTAL OUT =         666.2595

            IN - OUT =           6.5781              IN - OUT =       5.2795E-02

 PERCENT DISCREPANCY =           0.01     PERCENT DISCREPANCY =           0.01






         TIME SUMMARY AT END OF TIME STEP   22 IN STRESS PERIOD    3
                    SECONDS     MINUTES      HOURS       DAYS        YEARS
                    -----------------------------------------------------------
   TIME STEP LENGTH  86400.      1440.0      24.000      1.0000     2.73785E-03
 STRESS PERIOD TIME 1.90080E+06  31680.      528.00      22.000     6.02327E-02
         TOTAL TIME 1.06272E+07 1.77120E+05  2952.0      123.00     0.33676    
1
 
 SOLVING FOR HEAD 

 OUTPUT CONTROL FOR STRESS PERIOD    3   TIME STEP   23
    SAVE HEAD FOR ALL LAYERS
    SAVE DRAWDOWN FOR ALL LAYERS
    SAVE BUDGET
    PRINT HEAD FOR ALL LAYERS
    PRINT BUDGET
 UBDSV1 SAVING "         STORAGE" ON UNIT  53 AT TIME STEP 23, STRESS PERIOD   3
 UBDSV2 SAVING "   CONSTANT HEAD" ON UNIT  53 AT TIME STEP 23, STRESS PERIOD   3
 UBDSV1 SAVING "FLOW RIGHT FACE " ON UNIT  53 AT TIME STEP 23, STRESS PERIOD   3
 UBDSV1 SAVING "FLOW FRONT FACE " ON UNIT  53 AT TIME STEP 23, STRESS PERIOD   3
 UBDSV1 SAVING "FLOW LOWER FACE " ON UNIT  53 AT TIME STEP 23, STRESS PERIOD   3
1
              HEAD IN LAYER   1 AT END OF TIME STEP  23 IN STRESS PERIOD    3
  ---------------------------------------------------------------------------

            1           2           3           4           5           6           7           8           9          10
 ........................................................................................................................
   1    9.997       8.887       7.776       6.666       5.555       4.445       3.335       2.224       1.114      3.3313E-03
   2    9.997       8.887       7.776       6.666       5.555       4.445       3.335       2.224       1.114      3.3313E-03
   3    9.997       8.887       7.776       6.666       5.555       4.445       3.335       2.224       1.114      3.3313E-03
   4    9.997       8.887       7.776       6.666       5.555       4.445       3.335       2.224       1.114      3.3313E-03
   5    9.997       8.887       7.776       6.666       5.555       4.445       3.335       2.224       1.114      3.3313E-03
   6    9.997       8.887       7.776       6.666       5.555       4.445       3.335       2.224       1.114      3.3313E-03
   7    9.997       8.887       7.776       6.666       5.555       4.445       3.335       2.224       1.114      3.3313E-03
   8    9.997       8.887       7.776       6.666       5.555       4.445       3.335       2.224       1.114      3.3313E-03
   9    9.997       8.887       7.776       6.666       5.555       4.445       3.335       2.224       1.114      3.3313E-03
  10    9.997       8.887       7.776       6.666       5.555       4.445       3.335       2.224       1.114      3.3313E-03
1
              HEAD IN LAYER   2 AT END OF TIME STEP  23 IN STRESS PERIOD    3
  ---------------------------------------------------------------------------

            1           2           3           4           5           6           7           8           9          10
 ........................................................................................................................
   1    9.997       8.887       7.776       6.666       5.555       4.445       3.335       2.224       1.114      3.3313E-03
   2    9.997       8.887       7.776       6.666       5.555       4.445       3.335       2.224       1.114      3.3313E-03
   3    9.997       8.887       7.776       6.666       5.555       4.445       3.335       2.224       1.114      3.3313E-03
   4    9.997       8.887       7.776       6.666       5.555       4.445       3.335       2.224       1.114      3.3313E-03
   5    9.997       8.887       7.776       6.666       5.555       4.445       3.335       2.224       1.114      3.3313E-03
   6    9.997       8.887       7.776       6.666       5.555       4.445       3.335       2.224       1.114      3.3313E-03
   7    9.997       8.887       7.776       6.666       5.555       4.445       3.335       2.224       1.114      3.3313E-03
   8    9.997       8.887       7.776       6.666       5.555       4.445       3.335       2.224       1.114      3.3313E-03
   9    9.997       8.887       7.776       6.666       5.555       4.445       3.335       2.224       1.114      3.3313E-03
  10    9.997       8.887       7.776       6.666       5.555       4.445       3.335       2.224       1.114      3.3313E-03
1
              HEAD IN LAYER   3 AT END OF TIME STEP  23 IN STRESS PERIOD    3
  ---------------------------------------------------------------------------

            1           2           3           4           5           6           7           8           9          10
 ........................................................................................................................
   1    9.997       8.887       7.776       6.666       5.555       4.445       3.335       2.224       1.114      3.3313E-03
   2    9.997       8.887       7.776       6.666       5.555       4.445       3.335       2.224       1.114      3.3313E-03
   3    9.997       8.887       7.776       6.666       5.555       4.445       3.335       2.224       1.114      3.3313E-03
   4    9.997       8.887       7.776       6.666       5.555       4.445       3.335       2.224       1.114      3.3313E-03
   5    9.997       8.887       7.776       6.666       5.555       4.445       3.335       2.224       1.114      3.3313E-03
   6    9.997       8.887       7.776       6.666       5.555       4.445       3.335       2.224       1.114      3.3313E-03
   7    9.997       8.887       7.776       6.666       5.555       4.445       3.335       2.224       1.114      3.3313E-03
   8    9.997       8.887       7.776       6.666       5.555       4.445       3.335       2.224       1.114      3.3313E-03
   9    9.997       8.887       7.776       6.666       5.555       4.445       3.335       2.224       1.114      3.3313E-03
  10    9.997       8.887       7.776       6.666       5.555       4.445       3.335       2.224       1.114      3.3313E-03
1
              HEAD IN LAYER   4 AT END OF TIME STEP  23 IN STRESS PERIOD    3
  ---------------------------------------------------------------------------

            1           2           3           4           5           6           7           8           9          10
 ........................................................................................................................
   1    9.997       8.887       7.776       6.666       5.555       4.445       3.335       2.224       1.114      3.3313E-03
   2    9.997       8.887       7.776       6.666       5.555       4.445       3.335       2.224       1.114      3.3313E-03
   3    9.997       8.887       7.776       6.666       5.555       4.445       3.335       2.224       1.114      3.3313E-03
   4    9.997       8.887       7.776       6.666       5.555       4.445       3.335       2.224       1.114      3.3313E-03
   5    9.997       8.887       7.776       6.666       5.555       4.445       3.335       2.224       1.114      3.3313E-03
   6    9.997       8.887       7.776       6.666       5.555       4.445       3.335       2.224       1.114      3.3313E-03
   7    9.997       8.887       7.776       6.666       5.555       4.445       3.335       2.224       1.114      3.3313E-03
   8    9.997       8.887       7.776       6.666       5.555       4.445       3.335       2.224       1.114      3.3313E-03
   9    9.997       8.887       7.776       6.666       5.555       4.445       3.335       2.224       1.114      3.3313E-03
  10    9.997       8.887       7.776       6.666       5.555       4.445       3.335       2.224       1.114      3.3313E-03

 HEAD WILL BE SAVED ON UNIT   51 AT END OF TIME STEP   23, STRESS PERIOD    3

 DRAWDOWN WILL BE SAVED ON UNIT   52 AT END OF TIME STEP   23, STRESS PERIOD    3
1
  VOLUMETRIC BUDGET FOR ENTIRE MODEL AT END OF TIME STEP   23, STRESS PERIOD   3
  ------------------------------------------------------------------------------

     CUMULATIVE VOLUMES      L**3       RATES FOR THIS TIME STEP      L**3/T
     ------------------                 ------------------------

           IN:                                      IN:
           ---                                      ---
             STORAGE =       1.0477E-08               STORAGE =           0.0000
       CONSTANT HEAD =           0.0000         CONSTANT HEAD =           0.0000
               WELLS =           0.0000                 WELLS =           0.0000
     HEAD DEP BOUNDS =       82622.6953       HEAD DEP BOUNDS =         666.3123

            TOTAL IN =       82622.6953              TOTAL IN =         666.3123

          OUT:                                     OUT:
          ----                                     ----
             STORAGE =       5.2387E-08               STORAGE =           0.0000
       CONSTANT HEAD =           0.0000         CONSTANT HEAD =           0.0000
               WELLS =           0.0000                 WELLS =           0.0000
     HEAD DEP BOUNDS =       82616.0625       HEAD DEP BOUNDS =         666.2595

           TOTAL OUT =       82616.0625             TOTAL OUT =         666.2595

            IN - OUT =           6.6328              IN - OUT =       5.2795E-02

 PERCENT DISCREPANCY =           0.01     PERCENT DISCREPANCY =           0.01






         TIME SUMMARY AT END OF TIME STEP   23 IN STRESS PERIOD    3
                    SECONDS     MINUTES      HOURS       DAYS        YEARS
                    -----------------------------------------------------------
   TIME STEP LENGTH  86400.      1440.0      24.000      1.0000     2.73785E-03
 STRESS PERIOD TIME 1.98720E+06  33120.      552.00      23.000     6.29706E-02
         TOTAL TIME 1.07136E+07 1.78560E+05  2976.0      124.00     0.33949    
1
 
 SOLVING FOR HEAD 

 OUTPUT CONTROL FOR STRESS PERIOD    3   TIME STEP   24
    SAVE HEAD FOR ALL LAYERS
    SAVE DRAWDOWN FOR ALL LAYERS
    SAVE BUDGET
    PRINT HEAD FOR ALL LAYERS
    PRINT BUDGET
 UBDSV1 SAVING "         STORAGE" ON UNIT  53 AT TIME STEP 24, STRESS PERIOD   3
 UBDSV2 SAVING "   CONSTANT HEAD" ON UNIT  53 AT TIME STEP 24, STRESS PERIOD   3
 UBDSV1 SAVING "FLOW RIGHT FACE " ON UNIT  53 AT TIME STEP 24, STRESS PERIOD   3
 UBDSV1 SAVING "FLOW FRONT FACE " ON UNIT  53 AT TIME STEP 24, STRESS PERIOD   3
 UBDSV1 SAVING "FLOW LOWER FACE " ON UNIT  53 AT TIME STEP 24, STRESS PERIOD   3
1
              HEAD IN LAYER   1 AT END OF TIME STEP  24 IN STRESS PERIOD    3
  ---------------------------------------------------------------------------

            1           2           3           4           5           6           7           8           9          10
 ........................................................................................................................
   1    9.997       8.887       7.776       6.666       5.555       4.445       3.335       2.224       1.114      3.3313E-03
   2    9.997       8.887       7.776       6.666       5.555       4.445       3.335       2.224       1.114      3.3313E-03
   3    9.997       8.887       7.776       6.666       5.555       4.445       3.335       2.224       1.114      3.3313E-03
   4    9.997       8.887       7.776       6.666       5.555       4.445       3.335       2.224       1.114      3.3313E-03
   5    9.997       8.887       7.776       6.666       5.555       4.445       3.335       2.224       1.114      3.3313E-03
   6    9.997       8.887       7.776       6.666       5.555       4.445       3.335       2.224       1.114      3.3313E-03
   7    9.997       8.887       7.776       6.666       5.555       4.445       3.335       2.224       1.114      3.3313E-03
   8    9.997       8.887       7.776       6.666       5.555       4.445       3.335       2.224       1.114      3.3313E-03
   9    9.997       8.887       7.776       6.666       5.555       4.445       3.335       2.224       1.114      3.3313E-03
  10    9.997       8.887       7.776       6.666       5.555       4.445       3.335       2.224       1.114      3.3313E-03
1
              HEAD IN LAYER   2 AT END OF TIME STEP  24 IN STRESS PERIOD    3
  ---------------------------------------------------------------------------

            1           2           3           4           5           6           7           8           9          10
 ........................................................................................................................
   1    9.997       8.887       7.776       6.666       5.555       4.445       3.335       2.224       1.114      3.3313E-03
   2    9.997       8.887       7.776       6.666       5.555       4.445       3.335       2.224       1.114      3.3313E-03
   3    9.997       8.887       7.776       6.666       5.555       4.445       3.335       2.224       1.114      3.3313E-03
   4    9.997       8.887       7.776       6.666       5.555       4.445       3.335       2.224       1.114      3.3313E-03
   5    9.997       8.887       7.776       6.666       5.555       4.445       3.335       2.224       1.114      3.3313E-03
   6    9.997       8.887       7.776       6.666       5.555       4.445       3.335       2.224       1.114      3.3313E-03
   7    9.997       8.887       7.776       6.666       5.555       4.445       3.335       2.224       1.114      3.3313E-03
   8    9.997       8.887       7.776       6.666       5.555       4.445       3.335       2.224       1.114      3.3313E-03
   9    9.997       8.887       7.776       6.666       5.555       4.445       3.335       2.224       1.114      3.3313E-03
  10    9.997       8.887       7.776       6.666       5.555       4.445       3.335       2.224       1.114      3.3313E-03
1
              HEAD IN LAYER   3 AT END OF TIME STEP  24 IN STRESS PERIOD    3
  ---------------------------------------------------------------------------

            1           2           3           4           5           6           7           8           9          10
 ........................................................................................................................
   1    9.997       8.887       7.776       6.666       5.555       4.445       3.335       2.224       1.114      3.3313E-03
   2    9.997       8.887       7.776       6.666       5.555       4.445       3.335       2.224       1.114      3.3313E-03
   3    9.997       8.887       7.776       6.666       5.555       4.445       3.335       2.224       1.114      3.3313E-03
   4    9.997       8.887       7.776       6.666       5.555       4.445       3.335       2.224       1.114      3.3313E-03
   5    9.997       8.887       7.776       6.666       5.555       4.445       3.335       2.224       1.114      3.3313E-03
   6    9.997       8.887       7.776       6.666       5.555       4.445       3.335       2.224       1.114      3.3313E-03
   7    9.997       8.887       7.776       6.666       5.555       4.445       3.335       2.224       1.114      3.3313E-03
   8    9.997       8.887       7.776       6.666       5.555       4.445       3.335       2.224       1.114      3.3313E-03
   9    9.997       8.887       7.776       6.666       5.555       4.445       3.335       2.224       1.114      3.3313E-03
  10    9.997       8.887       7.776       6.666       5.555       4.445       3.335       2.224       1.114      3.3313E-03
1
              HEAD IN LAYER   4 AT END OF TIME STEP  24 IN STRESS PERIOD    3
  ---------------------------------------------------------------------------

            1           2           3           4           5           6           7           8           9          10
 ........................................................................................................................
   1    9.997       8.887       7.776       6.666       5.555       4.445       3.335       2.224       1.114      3.3313E-03
   2    9.997       8.887       7.776       6.666       5.555       4.445       3.335       2.224       1.114      3.3313E-03
   3    9.997       8.887       7.776       6.666       5.555       4.445       3.335       2.224       1.114      3.3313E-03
   4    9.997       8.887       7.776       6.666       5.555       4.445       3.335       2.224       1.114      3.3313E-03
   5    9.997       8.887       7.776       6.666       5.555       4.445       3.335       2.224       1.114      3.3313E-03
   6    9.997       8.887       7.776       6.666       5.555       4.445       3.335       2.224       1.114      3.3313E-03
   7    9.997       8.887       7.776       6.666       5.555       4.445       3.335       2.224       1.114      3.3313E-03
   8    9.997       8.887       7.776       6.666       5.555       4.445       3.335       2.224       1.114      3.3313E-03
   9    9.997       8.887       7.776       6.666       5.555       4.445       3.335       2.224       1.114      3.3313E-03
  10    9.997       8.887       7.776       6.666       5.555       4.445       3.335       2.224       1.114      3.3313E-03

 HEAD WILL BE SAVED ON UNIT   51 AT END OF TIME STEP   24, STRESS PERIOD    3

 DRAWDOWN WILL BE SAVED ON UNIT   52 AT END OF TIME STEP   24, STRESS PERIOD    3
1
  VOLUMETRIC BUDGET FOR ENTIRE MODEL AT END OF TIME STEP   24, STRESS PERIOD   3
  ------------------------------------------------------------------------------

     CUMULATIVE VOLUMES      L**3       RATES FOR THIS TIME STEP      L**3/T
     ------------------                 ------------------------

           IN:                                      IN:
           ---                                      ---
             STORAGE =       1.0477E-08               STORAGE =           0.0000
       CONSTANT HEAD =           0.0000         CONSTANT HEAD =           0.0000
               WELLS =           0.0000                 WELLS =           0.0000
     HEAD DEP BOUNDS =       83289.0078       HEAD DEP BOUNDS =         666.3123

            TOTAL IN =       83289.0078              TOTAL IN =         666.3123

          OUT:                                     OUT:
          ----                                     ----
             STORAGE =       5.2387E-08               STORAGE =           0.0000
       CONSTANT HEAD =           0.0000         CONSTANT HEAD =           0.0000
               WELLS =           0.0000                 WELLS =           0.0000
     HEAD DEP BOUNDS =       83282.3203       HEAD DEP BOUNDS =         666.2595

           TOTAL OUT =       83282.3203             TOTAL OUT =         666.2595

            IN - OUT =           6.6875              IN - OUT =       5.2795E-02

 PERCENT DISCREPANCY =           0.01     PERCENT DISCREPANCY =           0.01






         TIME SUMMARY AT END OF TIME STEP   24 IN STRESS PERIOD    3
                    SECONDS     MINUTES      HOURS       DAYS        YEARS
                    -----------------------------------------------------------
   TIME STEP LENGTH  86400.      1440.0      24.000      1.0000     2.73785E-03
 STRESS PERIOD TIME 2.07360E+06  34560.      576.00      24.000     6.57084E-02
         TOTAL TIME 1.08000E+07 1.80000E+05  3000.0      125.00     0.34223    
1
 
 SOLVING FOR HEAD 

 OUTPUT CONTROL FOR STRESS PERIOD    3   TIME STEP   25
    SAVE HEAD FOR ALL LAYERS
    SAVE DRAWDOWN FOR ALL LAYERS
    SAVE BUDGET
    PRINT HEAD FOR ALL LAYERS
    PRINT BUDGET
 UBDSV1 SAVING "         STORAGE" ON UNIT  53 AT TIME STEP 25, STRESS PERIOD   3
 UBDSV2 SAVING "   CONSTANT HEAD" ON UNIT  53 AT TIME STEP 25, STRESS PERIOD   3
 UBDSV1 SAVING "FLOW RIGHT FACE " ON UNIT  53 AT TIME STEP 25, STRESS PERIOD   3
 UBDSV1 SAVING "FLOW FRONT FACE " ON UNIT  53 AT TIME STEP 25, STRESS PERIOD   3
 UBDSV1 SAVING "FLOW LOWER FACE " ON UNIT  53 AT TIME STEP 25, STRESS PERIOD   3
1
              HEAD IN LAYER   1 AT END OF TIME STEP  25 IN STRESS PERIOD    3
  ---------------------------------------------------------------------------

            1           2           3           4           5           6           7           8           9          10
 ........................................................................................................................
   1    9.997       8.887       7.776       6.666       5.555       4.445       3.335       2.224       1.114      3.3313E-03
   2    9.997       8.887       7.776       6.666       5.555       4.445       3.335       2.224       1.114      3.3313E-03
   3    9.997       8.887       7.776       6.666       5.555       4.445       3.335       2.224       1.114      3.3313E-03
   4    9.997       8.887       7.776       6.666       5.555       4.445       3.335       2.224       1.114      3.3313E-03
   5    9.997       8.887       7.776       6.666       5.555       4.445       3.335       2.224       1.114      3.3313E-03
   6    9.997       8.887       7.776       6.666       5.555       4.445       3.335       2.224       1.114      3.3313E-03
   7    9.997       8.887       7.776       6.666       5.555       4.445       3.335       2.224       1.114      3.3313E-03
   8    9.997       8.887       7.776       6.666       5.555       4.445       3.335       2.224       1.114      3.3313E-03
   9    9.997       8.887       7.776       6.666       5.555       4.445       3.335       2.224       1.114      3.3313E-03
  10    9.997       8.887       7.776       6.666       5.555       4.445       3.335       2.224       1.114      3.3313E-03
1
              HEAD IN LAYER   2 AT END OF TIME STEP  25 IN STRESS PERIOD    3
  ---------------------------------------------------------------------------

            1           2           3           4           5           6           7           8           9          10
 ........................................................................................................................
   1    9.997       8.887       7.776       6.666       5.555       4.445       3.335       2.224       1.114      3.3313E-03
   2    9.997       8.887       7.776       6.666       5.555       4.445       3.335       2.224       1.114      3.3313E-03
   3    9.997       8.887       7.776       6.666       5.555       4.445       3.335       2.224       1.114      3.3313E-03
   4    9.997       8.887       7.776       6.666       5.555       4.445       3.335       2.224       1.114      3.3313E-03
   5    9.997       8.887       7.776       6.666       5.555       4.445       3.335       2.224       1.114      3.3313E-03
   6    9.997       8.887       7.776       6.666       5.555       4.445       3.335       2.224       1.114      3.3313E-03
   7    9.997       8.887       7.776       6.666       5.555       4.445       3.335       2.224       1.114      3.3313E-03
   8    9.997       8.887       7.776       6.666       5.555       4.445       3.335       2.224       1.114      3.3313E-03
   9    9.997       8.887       7.776       6.666       5.555       4.445       3.335       2.224       1.114      3.3313E-03
  10    9.997       8.887       7.776       6.666       5.555       4.445       3.335       2.224       1.114      3.3313E-03
1
              HEAD IN LAYER   3 AT END OF TIME STEP  25 IN STRESS PERIOD    3
  ---------------------------------------------------------------------------

            1           2           3           4           5           6           7           8           9          10
 ........................................................................................................................
   1    9.997       8.887       7.776       6.666       5.555       4.445       3.335       2.224       1.114      3.3313E-03
   2    9.997       8.887       7.776       6.666       5.555       4.445       3.335       2.224       1.114      3.3313E-03
   3    9.997       8.887       7.776       6.666       5.555       4.445       3.335       2.224       1.114      3.3313E-03
   4    9.997       8.887       7.776       6.666       5.555       4.445       3.335       2.224       1.114      3.3313E-03
   5    9.997       8.887       7.776       6.666       5.555       4.445       3.335       2.224       1.114      3.3313E-03
   6    9.997       8.887       7.776       6.666       5.555       4.445       3.335       2.224       1.114      3.3313E-03
   7    9.997       8.887       7.776       6.666       5.555       4.445       3.335       2.224       1.114      3.3313E-03
   8    9.997       8.887       7.776       6.666       5.555       4.445       3.335       2.224       1.114      3.3313E-03
   9    9.997       8.887       7.776       6.666       5.555       4.445       3.335       2.224       1.114      3.3313E-03
  10    9.997       8.887       7.776       6.666       5.555       4.445       3.335       2.224       1.114      3.3313E-03
1
              HEAD IN LAYER   4 AT END OF TIME STEP  25 IN STRESS PERIOD    3
  ---------------------------------------------------------------------------

            1           2           3           4           5           6           7           8           9          10
 ........................................................................................................................
   1    9.997       8.887       7.776       6.666       5.555       4.445       3.335       2.224       1.114      3.3313E-03
   2    9.997       8.887       7.776       6.666       5.555       4.445       3.335       2.224       1.114      3.3313E-03
   3    9.997       8.887       7.776       6.666       5.555       4.445       3.335       2.224       1.114      3.3313E-03
   4    9.997       8.887       7.776       6.666       5.555       4.445       3.335       2.224       1.114      3.3313E-03
   5    9.997       8.887       7.776       6.666       5.555       4.445       3.335       2.224       1.114      3.3313E-03
   6    9.997       8.887       7.776       6.666       5.555       4.445       3.335       2.224       1.114      3.3313E-03
   7    9.997       8.887       7.776       6.666       5.555       4.445       3.335       2.224       1.114      3.3313E-03
   8    9.997       8.887       7.776       6.666       5.555       4.445       3.335       2.224       1.114      3.3313E-03
   9    9.997       8.887       7.776       6.666       5.555       4.445       3.335       2.224       1.114      3.3313E-03
  10    9.997       8.887       7.776       6.666       5.555       4.445       3.335       2.224       1.114      3.3313E-03

 HEAD WILL BE SAVED ON UNIT   51 AT END OF TIME STEP   25, STRESS PERIOD    3

 DRAWDOWN WILL BE SAVED ON UNIT   52 AT END OF TIME STEP   25, STRESS PERIOD    3
1
  VOLUMETRIC BUDGET FOR ENTIRE MODEL AT END OF TIME STEP   25, STRESS PERIOD   3
  ------------------------------------------------------------------------------

     CUMULATIVE VOLUMES      L**3       RATES FOR THIS TIME STEP      L**3/T
     ------------------                 ------------------------

           IN:                                      IN:
           ---                                      ---
             STORAGE =       1.0477E-08               STORAGE =           0.0000
       CONSTANT HEAD =           0.0000         CONSTANT HEAD =           0.0000
               WELLS =           0.0000                 WELLS =           0.0000
     HEAD DEP BOUNDS =       83955.3203       HEAD DEP BOUNDS =         666.3123

            TOTAL IN =       83955.3203              TOTAL IN =         666.3123

          OUT:                                     OUT:
          ----                                     ----
             STORAGE =       5.2387E-08               STORAGE =           0.0000
       CONSTANT HEAD =           0.0000         CONSTANT HEAD =           0.0000
               WELLS =           0.0000                 WELLS =           0.0000
     HEAD DEP BOUNDS =       83948.5781       HEAD DEP BOUNDS =         666.2595

           TOTAL OUT =       83948.5781             TOTAL OUT =         666.2595

            IN - OUT =           6.7422              IN - OUT =       5.2795E-02

 PERCENT DISCREPANCY =           0.01     PERCENT DISCREPANCY =           0.01






         TIME SUMMARY AT END OF TIME STEP   25 IN STRESS PERIOD    3
                    SECONDS     MINUTES      HOURS       DAYS        YEARS
                    -----------------------------------------------------------
   TIME STEP LENGTH  86400.      1440.0      24.000      1.0000     2.73785E-03
 STRESS PERIOD TIME 2.16000E+06  36000.      600.00      25.000     6.84463E-02
         TOTAL TIME 1.08864E+07 1.81440E+05  3024.0      126.00     0.34497    
1
 
 SOLVING FOR HEAD 

 OUTPUT CONTROL FOR STRESS PERIOD    3   TIME STEP   26
    SAVE HEAD FOR ALL LAYERS
    SAVE DRAWDOWN FOR ALL LAYERS
    SAVE BUDGET
    PRINT HEAD FOR ALL LAYERS
    PRINT BUDGET
 UBDSV1 SAVING "         STORAGE" ON UNIT  53 AT TIME STEP 26, STRESS PERIOD   3
 UBDSV2 SAVING "   CONSTANT HEAD" ON UNIT  53 AT TIME STEP 26, STRESS PERIOD   3
 UBDSV1 SAVING "FLOW RIGHT FACE " ON UNIT  53 AT TIME STEP 26, STRESS PERIOD   3
 UBDSV1 SAVING "FLOW FRONT FACE " ON UNIT  53 AT TIME STEP 26, STRESS PERIOD   3
 UBDSV1 SAVING "FLOW LOWER FACE " ON UNIT  53 AT TIME STEP 26, STRESS PERIOD   3
1
              HEAD IN LAYER   1 AT END OF TIME STEP  26 IN STRESS PERIOD    3
  ---------------------------------------------------------------------------

            1           2           3           4           5           6           7           8           9          10
 ........................................................................................................................
   1    9.997       8.887       7.776       6.666       5.555       4.445       3.335       2.224       1.114      3.3313E-03
   2    9.997       8.887       7.776       6.666       5.555       4.445       3.335       2.224       1.114      3.3313E-03
   3    9.997       8.887       7.776       6.666       5.555       4.445       3.335       2.224       1.114      3.3313E-03
   4    9.997       8.887       7.776       6.666       5.555       4.445       3.335       2.224       1.114      3.3313E-03
   5    9.997       8.887       7.776       6.666       5.555       4.445       3.335       2.224       1.114      3.3313E-03
   6    9.997       8.887       7.776       6.666       5.555       4.445       3.335       2.224       1.114      3.3313E-03
   7    9.997       8.887       7.776       6.666       5.555       4.445       3.335       2.224       1.114      3.3313E-03
   8    9.997       8.887       7.776       6.666       5.555       4.445       3.335       2.224       1.114      3.3313E-03
   9    9.997       8.887       7.776       6.666       5.555       4.445       3.335       2.224       1.114      3.3313E-03
  10    9.997       8.887       7.776       6.666       5.555       4.445       3.335       2.224       1.114      3.3313E-03
1
              HEAD IN LAYER   2 AT END OF TIME STEP  26 IN STRESS PERIOD    3
  ---------------------------------------------------------------------------

            1           2           3           4           5           6           7           8           9          10
 ........................................................................................................................
   1    9.997       8.887       7.776       6.666       5.555       4.445       3.335       2.224       1.114      3.3313E-03
   2    9.997       8.887       7.776       6.666       5.555       4.445       3.335       2.224       1.114      3.3313E-03
   3    9.997       8.887       7.776       6.666       5.555       4.445       3.335       2.224       1.114      3.3313E-03
   4    9.997       8.887       7.776       6.666       5.555       4.445       3.335       2.224       1.114      3.3313E-03
   5    9.997       8.887       7.776       6.666       5.555       4.445       3.335       2.224       1.114      3.3313E-03
   6    9.997       8.887       7.776       6.666       5.555       4.445       3.335       2.224       1.114      3.3313E-03
   7    9.997       8.887       7.776       6.666       5.555       4.445       3.335       2.224       1.114      3.3313E-03
   8    9.997       8.887       7.776       6.666       5.555       4.445       3.335       2.224       1.114      3.3313E-03
   9    9.997       8.887       7.776       6.666       5.555       4.445       3.335       2.224       1.114      3.3313E-03
  10    9.997       8.887       7.776       6.666       5.555       4.445       3.335       2.224       1.114      3.3313E-03
1
              HEAD IN LAYER   3 AT END OF TIME STEP  26 IN STRESS PERIOD    3
  ---------------------------------------------------------------------------

            1           2           3           4           5           6           7           8           9          10
 ........................................................................................................................
   1    9.997       8.887       7.776       6.666       5.555       4.445       3.335       2.224       1.114      3.3313E-03
   2    9.997       8.887       7.776       6.666       5.555       4.445       3.335       2.224       1.114      3.3313E-03
   3    9.997       8.887       7.776       6.666       5.555       4.445       3.335       2.224       1.114      3.3313E-03
   4    9.997       8.887       7.776       6.666       5.555       4.445       3.335       2.224       1.114      3.3313E-03
   5    9.997       8.887       7.776       6.666       5.555       4.445       3.335       2.224       1.114      3.3313E-03
   6    9.997       8.887       7.776       6.666       5.555       4.445       3.335       2.224       1.114      3.3313E-03
   7    9.997       8.887       7.776       6.666       5.555       4.445       3.335       2.224       1.114      3.3313E-03
   8    9.997       8.887       7.776       6.666       5.555       4.445       3.335       2.224       1.114      3.3313E-03
   9    9.997       8.887       7.776       6.666       5.555       4.445       3.335       2.224       1.114      3.3313E-03
  10    9.997       8.887       7.776       6.666       5.555       4.445       3.335       2.224       1.114      3.3313E-03
1
              HEAD IN LAYER   4 AT END OF TIME STEP  26 IN STRESS PERIOD    3
  ---------------------------------------------------------------------------

            1           2           3           4           5           6           7           8           9          10
 ........................................................................................................................
   1    9.997       8.887       7.776       6.666       5.555       4.445       3.335       2.224       1.114      3.3313E-03
   2    9.997       8.887       7.776       6.666       5.555       4.445       3.335       2.224       1.114      3.3313E-03
   3    9.997       8.887       7.776       6.666       5.555       4.445       3.335       2.224       1.114      3.3313E-03
   4    9.997       8.887       7.776       6.666       5.555       4.445       3.335       2.224       1.114      3.3313E-03
   5    9.997       8.887       7.776       6.666       5.555       4.445       3.335       2.224       1.114      3.3313E-03
   6    9.997       8.887       7.776       6.666       5.555       4.445       3.335       2.224       1.114      3.3313E-03
   7    9.997       8.887       7.776       6.666       5.555       4.445       3.335       2.224       1.114      3.3313E-03
   8    9.997       8.887       7.776       6.666       5.555       4.445       3.335       2.224       1.114      3.3313E-03
   9    9.997       8.887       7.776       6.666       5.555       4.445       3.335       2.224       1.114      3.3313E-03
  10    9.997       8.887       7.776       6.666       5.555       4.445       3.335       2.224       1.114      3.3313E-03

 HEAD WILL BE SAVED ON UNIT   51 AT END OF TIME STEP   26, STRESS PERIOD    3

 DRAWDOWN WILL BE SAVED ON UNIT   52 AT END OF TIME STEP   26, STRESS PERIOD    3
1
  VOLUMETRIC BUDGET FOR ENTIRE MODEL AT END OF TIME STEP   26, STRESS PERIOD   3
  ------------------------------------------------------------------------------

     CUMULATIVE VOLUMES      L**3       RATES FOR THIS TIME STEP      L**3/T
     ------------------                 ------------------------

           IN:                                      IN:
           ---                                      ---
             STORAGE =       1.0477E-08               STORAGE =           0.0000
       CONSTANT HEAD =           0.0000         CONSTANT HEAD =           0.0000
               WELLS =           0.0000                 WELLS =           0.0000
     HEAD DEP BOUNDS =       84621.6328       HEAD DEP BOUNDS =         666.3123

            TOTAL IN =       84621.6328              TOTAL IN =         666.3123

          OUT:                                     OUT:
          ----                                     ----
             STORAGE =       5.2387E-08               STORAGE =           0.0000
       CONSTANT HEAD =           0.0000         CONSTANT HEAD =           0.0000
               WELLS =           0.0000                 WELLS =           0.0000
     HEAD DEP BOUNDS =       84614.8359       HEAD DEP BOUNDS =         666.2595

           TOTAL OUT =       84614.8359             TOTAL OUT =         666.2595

            IN - OUT =           6.7969              IN - OUT =       5.2795E-02

 PERCENT DISCREPANCY =           0.01     PERCENT DISCREPANCY =           0.01






         TIME SUMMARY AT END OF TIME STEP   26 IN STRESS PERIOD    3
                    SECONDS     MINUTES      HOURS       DAYS        YEARS
                    -----------------------------------------------------------
   TIME STEP LENGTH  86400.      1440.0      24.000      1.0000     2.73785E-03
 STRESS PERIOD TIME 2.24640E+06  37440.      624.00      26.000     7.11841E-02
         TOTAL TIME 1.09728E+07 1.82880E+05  3048.0      127.00     0.34771    
1
 
 SOLVING FOR HEAD 

 OUTPUT CONTROL FOR STRESS PERIOD    3   TIME STEP   27
    SAVE HEAD FOR ALL LAYERS
    SAVE DRAWDOWN FOR ALL LAYERS
    SAVE BUDGET
    PRINT HEAD FOR ALL LAYERS
    PRINT BUDGET
 UBDSV1 SAVING "         STORAGE" ON UNIT  53 AT TIME STEP 27, STRESS PERIOD   3
 UBDSV2 SAVING "   CONSTANT HEAD" ON UNIT  53 AT TIME STEP 27, STRESS PERIOD   3
 UBDSV1 SAVING "FLOW RIGHT FACE " ON UNIT  53 AT TIME STEP 27, STRESS PERIOD   3
 UBDSV1 SAVING "FLOW FRONT FACE " ON UNIT  53 AT TIME STEP 27, STRESS PERIOD   3
 UBDSV1 SAVING "FLOW LOWER FACE " ON UNIT  53 AT TIME STEP 27, STRESS PERIOD   3
1
              HEAD IN LAYER   1 AT END OF TIME STEP  27 IN STRESS PERIOD    3
  ---------------------------------------------------------------------------

            1           2           3           4           5           6           7           8           9          10
 ........................................................................................................................
   1    9.997       8.887       7.776       6.666       5.555       4.445       3.335       2.224       1.114      3.3313E-03
   2    9.997       8.887       7.776       6.666       5.555       4.445       3.335       2.224       1.114      3.3313E-03
   3    9.997       8.887       7.776       6.666       5.555       4.445       3.335       2.224       1.114      3.3313E-03
   4    9.997       8.887       7.776       6.666       5.555       4.445       3.335       2.224       1.114      3.3313E-03
   5    9.997       8.887       7.776       6.666       5.555       4.445       3.335       2.224       1.114      3.3313E-03
   6    9.997       8.887       7.776       6.666       5.555       4.445       3.335       2.224       1.114      3.3313E-03
   7    9.997       8.887       7.776       6.666       5.555       4.445       3.335       2.224       1.114      3.3313E-03
   8    9.997       8.887       7.776       6.666       5.555       4.445       3.335       2.224       1.114      3.3313E-03
   9    9.997       8.887       7.776       6.666       5.555       4.445       3.335       2.224       1.114      3.3313E-03
  10    9.997       8.887       7.776       6.666       5.555       4.445       3.335       2.224       1.114      3.3313E-03
1
              HEAD IN LAYER   2 AT END OF TIME STEP  27 IN STRESS PERIOD    3
  ---------------------------------------------------------------------------

            1           2           3           4           5           6           7           8           9          10
 ........................................................................................................................
   1    9.997       8.887       7.776       6.666       5.555       4.445       3.335       2.224       1.114      3.3313E-03
   2    9.997       8.887       7.776       6.666       5.555       4.445       3.335       2.224       1.114      3.3313E-03
   3    9.997       8.887       7.776       6.666       5.555       4.445       3.335       2.224       1.114      3.3313E-03
   4    9.997       8.887       7.776       6.666       5.555       4.445       3.335       2.224       1.114      3.3313E-03
   5    9.997       8.887       7.776       6.666       5.555       4.445       3.335       2.224       1.114      3.3313E-03
   6    9.997       8.887       7.776       6.666       5.555       4.445       3.335       2.224       1.114      3.3313E-03
   7    9.997       8.887       7.776       6.666       5.555       4.445       3.335       2.224       1.114      3.3313E-03
   8    9.997       8.887       7.776       6.666       5.555       4.445       3.335       2.224       1.114      3.3313E-03
   9    9.997       8.887       7.776       6.666       5.555       4.445       3.335       2.224       1.114      3.3313E-03
  10    9.997       8.887       7.776       6.666       5.555       4.445       3.335       2.224       1.114      3.3313E-03
1
              HEAD IN LAYER   3 AT END OF TIME STEP  27 IN STRESS PERIOD    3
  ---------------------------------------------------------------------------

            1           2           3           4           5           6           7           8           9          10
 ........................................................................................................................
   1    9.997       8.887       7.776       6.666       5.555       4.445       3.335       2.224       1.114      3.3313E-03
   2    9.997       8.887       7.776       6.666       5.555       4.445       3.335       2.224       1.114      3.3313E-03
   3    9.997       8.887       7.776       6.666       5.555       4.445       3.335       2.224       1.114      3.3313E-03
   4    9.997       8.887       7.776       6.666       5.555       4.445       3.335       2.224       1.114      3.3313E-03
   5    9.997       8.887       7.776       6.666       5.555       4.445       3.335       2.224       1.114      3.3313E-03
   6    9.997       8.887       7.776       6.666       5.555       4.445       3.335       2.224       1.114      3.3313E-03
   7    9.997       8.887       7.776       6.666       5.555       4.445       3.335       2.224       1.114      3.3313E-03
   8    9.997       8.887       7.776       6.666       5.555       4.445       3.335       2.224       1.114      3.3313E-03
   9    9.997       8.887       7.776       6.666       5.555       4.445       3.335       2.224       1.114      3.3313E-03
  10    9.997       8.887       7.776       6.666       5.555       4.445       3.335       2.224       1.114      3.3313E-03
1
              HEAD IN LAYER   4 AT END OF TIME STEP  27 IN STRESS PERIOD    3
  ---------------------------------------------------------------------------

            1           2           3           4           5           6           7           8           9          10
 ........................................................................................................................
   1    9.997       8.887       7.776       6.666       5.555       4.445       3.335       2.224       1.114      3.3313E-03
   2    9.997       8.887       7.776       6.666       5.555       4.445       3.335       2.224       1.114      3.3313E-03
   3    9.997       8.887       7.776       6.666       5.555       4.445       3.335       2.224       1.114      3.3313E-03
   4    9.997       8.887       7.776       6.666       5.555       4.445       3.335       2.224       1.114      3.3313E-03
   5    9.997       8.887       7.776       6.666       5.555       4.445       3.335       2.224       1.114      3.3313E-03
   6    9.997       8.887       7.776       6.666       5.555       4.445       3.335       2.224       1.114      3.3313E-03
   7    9.997       8.887       7.776       6.666       5.555       4.445       3.335       2.224       1.114      3.3313E-03
   8    9.997       8.887       7.776       6.666       5.555       4.445       3.335       2.224       1.114      3.3313E-03
   9    9.997       8.887       7.776       6.666       5.555       4.445       3.335       2.224       1.114      3.3313E-03
  10    9.997       8.887       7.776       6.666       5.555       4.445       3.335       2.224       1.114      3.3313E-03

 HEAD WILL BE SAVED ON UNIT   51 AT END OF TIME STEP   27, STRESS PERIOD    3

 DRAWDOWN WILL BE SAVED ON UNIT   52 AT END OF TIME STEP   27, STRESS PERIOD    3
1
  VOLUMETRIC BUDGET FOR ENTIRE MODEL AT END OF TIME STEP   27, STRESS PERIOD   3
  ------------------------------------------------------------------------------

     CUMULATIVE VOLUMES      L**3       RATES FOR THIS TIME STEP      L**3/T
     ------------------                 ------------------------

           IN:                                      IN:
           ---                                      ---
             STORAGE =       1.0477E-08               STORAGE =           0.0000
       CONSTANT HEAD =           0.0000         CONSTANT HEAD =           0.0000
               WELLS =           0.0000                 WELLS =           0.0000
     HEAD DEP BOUNDS =       85287.9453       HEAD DEP BOUNDS =         666.3123

            TOTAL IN =       85287.9453              TOTAL IN =         666.3123

          OUT:                                     OUT:
          ----                                     ----
             STORAGE =       5.2387E-08               STORAGE =           0.0000
       CONSTANT HEAD =           0.0000         CONSTANT HEAD =           0.0000
               WELLS =           0.0000                 WELLS =           0.0000
     HEAD DEP BOUNDS =       85281.0938       HEAD DEP BOUNDS =         666.2595

           TOTAL OUT =       85281.0938             TOTAL OUT =         666.2595

            IN - OUT =           6.8516              IN - OUT =       5.2795E-02

 PERCENT DISCREPANCY =           0.01     PERCENT DISCREPANCY =           0.01






         TIME SUMMARY AT END OF TIME STEP   27 IN STRESS PERIOD    3
                    SECONDS     MINUTES      HOURS       DAYS        YEARS
                    -----------------------------------------------------------
   TIME STEP LENGTH  86400.      1440.0      24.000      1.0000     2.73785E-03
 STRESS PERIOD TIME 2.33280E+06  38880.      648.00      27.000     7.39220E-02
         TOTAL TIME 1.10592E+07 1.84320E+05  3072.0      128.00     0.35044    
1
 
 SOLVING FOR HEAD 

 OUTPUT CONTROL FOR STRESS PERIOD    3   TIME STEP   28
    SAVE HEAD FOR ALL LAYERS
    SAVE DRAWDOWN FOR ALL LAYERS
    SAVE BUDGET
    PRINT HEAD FOR ALL LAYERS
    PRINT BUDGET
 UBDSV1 SAVING "         STORAGE" ON UNIT  53 AT TIME STEP 28, STRESS PERIOD   3
 UBDSV2 SAVING "   CONSTANT HEAD" ON UNIT  53 AT TIME STEP 28, STRESS PERIOD   3
 UBDSV1 SAVING "FLOW RIGHT FACE " ON UNIT  53 AT TIME STEP 28, STRESS PERIOD   3
 UBDSV1 SAVING "FLOW FRONT FACE " ON UNIT  53 AT TIME STEP 28, STRESS PERIOD   3
 UBDSV1 SAVING "FLOW LOWER FACE " ON UNIT  53 AT TIME STEP 28, STRESS PERIOD   3
1
              HEAD IN LAYER   1 AT END OF TIME STEP  28 IN STRESS PERIOD    3
  ---------------------------------------------------------------------------

            1           2           3           4           5           6           7           8           9          10
 ........................................................................................................................
   1    9.997       8.887       7.776       6.666       5.555       4.445       3.335       2.224       1.114      3.3313E-03
   2    9.997       8.887       7.776       6.666       5.555       4.445       3.335       2.224       1.114      3.3313E-03
   3    9.997       8.887       7.776       6.666       5.555       4.445       3.335       2.224       1.114      3.3313E-03
   4    9.997       8.887       7.776       6.666       5.555       4.445       3.335       2.224       1.114      3.3313E-03
   5    9.997       8.887       7.776       6.666       5.555       4.445       3.335       2.224       1.114      3.3313E-03
   6    9.997       8.887       7.776       6.666       5.555       4.445       3.335       2.224       1.114      3.3313E-03
   7    9.997       8.887       7.776       6.666       5.555       4.445       3.335       2.224       1.114      3.3313E-03
   8    9.997       8.887       7.776       6.666       5.555       4.445       3.335       2.224       1.114      3.3313E-03
   9    9.997       8.887       7.776       6.666       5.555       4.445       3.335       2.224       1.114      3.3313E-03
  10    9.997       8.887       7.776       6.666       5.555       4.445       3.335       2.224       1.114      3.3313E-03
1
              HEAD IN LAYER   2 AT END OF TIME STEP  28 IN STRESS PERIOD    3
  ---------------------------------------------------------------------------

            1           2           3           4           5           6           7           8           9          10
 ........................................................................................................................
   1    9.997       8.887       7.776       6.666       5.555       4.445       3.335       2.224       1.114      3.3313E-03
   2    9.997       8.887       7.776       6.666       5.555       4.445       3.335       2.224       1.114      3.3313E-03
   3    9.997       8.887       7.776       6.666       5.555       4.445       3.335       2.224       1.114      3.3313E-03
   4    9.997       8.887       7.776       6.666       5.555       4.445       3.335       2.224       1.114      3.3313E-03
   5    9.997       8.887       7.776       6.666       5.555       4.445       3.335       2.224       1.114      3.3313E-03
   6    9.997       8.887       7.776       6.666       5.555       4.445       3.335       2.224       1.114      3.3313E-03
   7    9.997       8.887       7.776       6.666       5.555       4.445       3.335       2.224       1.114      3.3313E-03
   8    9.997       8.887       7.776       6.666       5.555       4.445       3.335       2.224       1.114      3.3313E-03
   9    9.997       8.887       7.776       6.666       5.555       4.445       3.335       2.224       1.114      3.3313E-03
  10    9.997       8.887       7.776       6.666       5.555       4.445       3.335       2.224       1.114      3.3313E-03
1
              HEAD IN LAYER   3 AT END OF TIME STEP  28 IN STRESS PERIOD    3
  ---------------------------------------------------------------------------

            1           2           3           4           5           6           7           8           9          10
 ........................................................................................................................
   1    9.997       8.887       7.776       6.666       5.555       4.445       3.335       2.224       1.114      3.3313E-03
   2    9.997       8.887       7.776       6.666       5.555       4.445       3.335       2.224       1.114      3.3313E-03
   3    9.997       8.887       7.776       6.666       5.555       4.445       3.335       2.224       1.114      3.3313E-03
   4    9.997       8.887       7.776       6.666       5.555       4.445       3.335       2.224       1.114      3.3313E-03
   5    9.997       8.887       7.776       6.666       5.555       4.445       3.335       2.224       1.114      3.3313E-03
   6    9.997       8.887       7.776       6.666       5.555       4.445       3.335       2.224       1.114      3.3313E-03
   7    9.997       8.887       7.776       6.666       5.555       4.445       3.335       2.224       1.114      3.3313E-03
   8    9.997       8.887       7.776       6.666       5.555       4.445       3.335       2.224       1.114      3.3313E-03
   9    9.997       8.887       7.776       6.666       5.555       4.445       3.335       2.224       1.114      3.3313E-03
  10    9.997       8.887       7.776       6.666       5.555       4.445       3.335       2.224       1.114      3.3313E-03
1
              HEAD IN LAYER   4 AT END OF TIME STEP  28 IN STRESS PERIOD    3
  ---------------------------------------------------------------------------

            1           2           3           4           5           6           7           8           9          10
 ........................................................................................................................
   1    9.997       8.887       7.776       6.666       5.555       4.445       3.335       2.224       1.114      3.3313E-03
   2    9.997       8.887       7.776       6.666       5.555       4.445       3.335       2.224       1.114      3.3313E-03
   3    9.997       8.887       7.776       6.666       5.555       4.445       3.335       2.224       1.114      3.3313E-03
   4    9.997       8.887       7.776       6.666       5.555       4.445       3.335       2.224       1.114      3.3313E-03
   5    9.997       8.887       7.776       6.666       5.555       4.445       3.335       2.224       1.114      3.3313E-03
   6    9.997       8.887       7.776       6.666       5.555       4.445       3.335       2.224       1.114      3.3313E-03
   7    9.997       8.887       7.776       6.666       5.555       4.445       3.335       2.224       1.114      3.3313E-03
   8    9.997       8.887       7.776       6.666       5.555       4.445       3.335       2.224       1.114      3.3313E-03
   9    9.997       8.887       7.776       6.666       5.555       4.445       3.335       2.224       1.114      3.3313E-03
  10    9.997       8.887       7.776       6.666       5.555       4.445       3.335       2.224       1.114      3.3313E-03

 HEAD WILL BE SAVED ON UNIT   51 AT END OF TIME STEP   28, STRESS PERIOD    3

 DRAWDOWN WILL BE SAVED ON UNIT   52 AT END OF TIME STEP   28, STRESS PERIOD    3
1
  VOLUMETRIC BUDGET FOR ENTIRE MODEL AT END OF TIME STEP   28, STRESS PERIOD   3
  ------------------------------------------------------------------------------

     CUMULATIVE VOLUMES      L**3       RATES FOR THIS TIME STEP      L**3/T
     ------------------                 ------------------------

           IN:                                      IN:
           ---                                      ---
             STORAGE =       1.0477E-08               STORAGE =           0.0000
       CONSTANT HEAD =           0.0000         CONSTANT HEAD =           0.0000
               WELLS =           0.0000                 WELLS =           0.0000
     HEAD DEP BOUNDS =       85954.2578       HEAD DEP BOUNDS =         666.3123

            TOTAL IN =       85954.2578              TOTAL IN =         666.3123

          OUT:                                     OUT:
          ----                                     ----
             STORAGE =       5.2387E-08               STORAGE =           0.0000
       CONSTANT HEAD =           0.0000         CONSTANT HEAD =           0.0000
               WELLS =           0.0000                 WELLS =           0.0000
     HEAD DEP BOUNDS =       85947.3516       HEAD DEP BOUNDS =         666.2595

           TOTAL OUT =       85947.3516             TOTAL OUT =         666.2595

            IN - OUT =           6.9062              IN - OUT =       5.2795E-02

 PERCENT DISCREPANCY =           0.01     PERCENT DISCREPANCY =           0.01






         TIME SUMMARY AT END OF TIME STEP   28 IN STRESS PERIOD    3
                    SECONDS     MINUTES      HOURS       DAYS        YEARS
                    -----------------------------------------------------------
   TIME STEP LENGTH  86400.      1440.0      24.000      1.0000     2.73785E-03
 STRESS PERIOD TIME 2.41920E+06  40320.      672.00      28.000     7.66598E-02
         TOTAL TIME 1.11456E+07 1.85760E+05  3096.0      129.00     0.35318    
1
 
 SOLVING FOR HEAD 

 OUTPUT CONTROL FOR STRESS PERIOD    3   TIME STEP   29
    SAVE HEAD FOR ALL LAYERS
    SAVE DRAWDOWN FOR ALL LAYERS
    SAVE BUDGET
    PRINT HEAD FOR ALL LAYERS
    PRINT BUDGET
 UBDSV1 SAVING "         STORAGE" ON UNIT  53 AT TIME STEP 29, STRESS PERIOD   3
 UBDSV2 SAVING "   CONSTANT HEAD" ON UNIT  53 AT TIME STEP 29, STRESS PERIOD   3
 UBDSV1 SAVING "FLOW RIGHT FACE " ON UNIT  53 AT TIME STEP 29, STRESS PERIOD   3
 UBDSV1 SAVING "FLOW FRONT FACE " ON UNIT  53 AT TIME STEP 29, STRESS PERIOD   3
 UBDSV1 SAVING "FLOW LOWER FACE " ON UNIT  53 AT TIME STEP 29, STRESS PERIOD   3
1
              HEAD IN LAYER   1 AT END OF TIME STEP  29 IN STRESS PERIOD    3
  ---------------------------------------------------------------------------

            1           2           3           4           5           6           7           8           9          10
 ........................................................................................................................
   1    9.997       8.887       7.776       6.666       5.555       4.445       3.335       2.224       1.114      3.3313E-03
   2    9.997       8.887       7.776       6.666       5.555       4.445       3.335       2.224       1.114      3.3313E-03
   3    9.997       8.887       7.776       6.666       5.555       4.445       3.335       2.224       1.114      3.3313E-03
   4    9.997       8.887       7.776       6.666       5.555       4.445       3.335       2.224       1.114      3.3313E-03
   5    9.997       8.887       7.776       6.666       5.555       4.445       3.335       2.224       1.114      3.3313E-03
   6    9.997       8.887       7.776       6.666       5.555       4.445       3.335       2.224       1.114      3.3313E-03
   7    9.997       8.887       7.776       6.666       5.555       4.445       3.335       2.224       1.114      3.3313E-03
   8    9.997       8.887       7.776       6.666       5.555       4.445       3.335       2.224       1.114      3.3313E-03
   9    9.997       8.887       7.776       6.666       5.555       4.445       3.335       2.224       1.114      3.3313E-03
  10    9.997       8.887       7.776       6.666       5.555       4.445       3.335       2.224       1.114      3.3313E-03
1
              HEAD IN LAYER   2 AT END OF TIME STEP  29 IN STRESS PERIOD    3
  ---------------------------------------------------------------------------

            1           2           3           4           5           6           7           8           9          10
 ........................................................................................................................
   1    9.997       8.887       7.776       6.666       5.555       4.445       3.335       2.224       1.114      3.3313E-03
   2    9.997       8.887       7.776       6.666       5.555       4.445       3.335       2.224       1.114      3.3313E-03
   3    9.997       8.887       7.776       6.666       5.555       4.445       3.335       2.224       1.114      3.3313E-03
   4    9.997       8.887       7.776       6.666       5.555       4.445       3.335       2.224       1.114      3.3313E-03
   5    9.997       8.887       7.776       6.666       5.555       4.445       3.335       2.224       1.114      3.3313E-03
   6    9.997       8.887       7.776       6.666       5.555       4.445       3.335       2.224       1.114      3.3313E-03
   7    9.997       8.887       7.776       6.666       5.555       4.445       3.335       2.224       1.114      3.3313E-03
   8    9.997       8.887       7.776       6.666       5.555       4.445       3.335       2.224       1.114      3.3313E-03
   9    9.997       8.887       7.776       6.666       5.555       4.445       3.335       2.224       1.114      3.3313E-03
  10    9.997       8.887       7.776       6.666       5.555       4.445       3.335       2.224       1.114      3.3313E-03
1
              HEAD IN LAYER   3 AT END OF TIME STEP  29 IN STRESS PERIOD    3
  ---------------------------------------------------------------------------

            1           2           3           4           5           6           7           8           9          10
 ........................................................................................................................
   1    9.997       8.887       7.776       6.666       5.555       4.445       3.335       2.224       1.114      3.3313E-03
   2    9.997       8.887       7.776       6.666       5.555       4.445       3.335       2.224       1.114      3.3313E-03
   3    9.997       8.887       7.776       6.666       5.555       4.445       3.335       2.224       1.114      3.3313E-03
   4    9.997       8.887       7.776       6.666       5.555       4.445       3.335       2.224       1.114      3.3313E-03
   5    9.997       8.887       7.776       6.666       5.555       4.445       3.335       2.224       1.114      3.3313E-03
   6    9.997       8.887       7.776       6.666       5.555       4.445       3.335       2.224       1.114      3.3313E-03
   7    9.997       8.887       7.776       6.666       5.555       4.445       3.335       2.224       1.114      3.3313E-03
   8    9.997       8.887       7.776       6.666       5.555       4.445       3.335       2.224       1.114      3.3313E-03
   9    9.997       8.887       7.776       6.666       5.555       4.445       3.335       2.224       1.114      3.3313E-03
  10    9.997       8.887       7.776       6.666       5.555       4.445       3.335       2.224       1.114      3.3313E-03
1
              HEAD IN LAYER   4 AT END OF TIME STEP  29 IN STRESS PERIOD    3
  ---------------------------------------------------------------------------

            1           2           3           4           5           6           7           8           9          10
 ........................................................................................................................
   1    9.997       8.887       7.776       6.666       5.555       4.445       3.335       2.224       1.114      3.3313E-03
   2    9.997       8.887       7.776       6.666       5.555       4.445       3.335       2.224       1.114      3.3313E-03
   3    9.997       8.887       7.776       6.666       5.555       4.445       3.335       2.224       1.114      3.3313E-03
   4    9.997       8.887       7.776       6.666       5.555       4.445       3.335       2.224       1.114      3.3313E-03
   5    9.997       8.887       7.776       6.666       5.555       4.445       3.335       2.224       1.114      3.3313E-03
   6    9.997       8.887       7.776       6.666       5.555       4.445       3.335       2.224       1.114      3.3313E-03
   7    9.997       8.887       7.776       6.666       5.555       4.445       3.335       2.224       1.114      3.3313E-03
   8    9.997       8.887       7.776       6.666       5.555       4.445       3.335       2.224       1.114      3.3313E-03
   9    9.997       8.887       7.776       6.666       5.555       4.445       3.335       2.224       1.114      3.3313E-03
  10    9.997       8.887       7.776       6.666       5.555       4.445       3.335       2.224       1.114      3.3313E-03

 HEAD WILL BE SAVED ON UNIT   51 AT END OF TIME STEP   29, STRESS PERIOD    3

 DRAWDOWN WILL BE SAVED ON UNIT   52 AT END OF TIME STEP   29, STRESS PERIOD    3
1
  VOLUMETRIC BUDGET FOR ENTIRE MODEL AT END OF TIME STEP   29, STRESS PERIOD   3
  ------------------------------------------------------------------------------

     CUMULATIVE VOLUMES      L**3       RATES FOR THIS TIME STEP      L**3/T
     ------------------                 ------------------------

           IN:                                      IN:
           ---                                      ---
             STORAGE =       1.0477E-08               STORAGE =           0.0000
       CONSTANT HEAD =           0.0000         CONSTANT HEAD =           0.0000
               WELLS =           0.0000                 WELLS =           0.0000
     HEAD DEP BOUNDS =       86620.5703       HEAD DEP BOUNDS =         666.3123

            TOTAL IN =       86620.5703              TOTAL IN =         666.3123

          OUT:                                     OUT:
          ----                                     ----
             STORAGE =       5.2387E-08               STORAGE =           0.0000
       CONSTANT HEAD =           0.0000         CONSTANT HEAD =           0.0000
               WELLS =           0.0000                 WELLS =           0.0000
     HEAD DEP BOUNDS =       86613.6094       HEAD DEP BOUNDS =         666.2595

           TOTAL OUT =       86613.6094             TOTAL OUT =         666.2595

            IN - OUT =           6.9609              IN - OUT =       5.2795E-02

 PERCENT DISCREPANCY =           0.01     PERCENT DISCREPANCY =           0.01






         TIME SUMMARY AT END OF TIME STEP   29 IN STRESS PERIOD    3
                    SECONDS     MINUTES      HOURS       DAYS        YEARS
                    -----------------------------------------------------------
   TIME STEP LENGTH  86400.      1440.0      24.000      1.0000     2.73785E-03
 STRESS PERIOD TIME 2.50560E+06  41760.      696.00      29.000     7.93977E-02
         TOTAL TIME 1.12320E+07 1.87200E+05  3120.0      130.00     0.35592    
1
 
 SOLVING FOR HEAD 

 OUTPUT CONTROL FOR STRESS PERIOD    3   TIME STEP   30
    SAVE HEAD FOR ALL LAYERS
    SAVE DRAWDOWN FOR ALL LAYERS
    SAVE BUDGET
    PRINT HEAD FOR ALL LAYERS
    PRINT BUDGET
 UBDSV1 SAVING "         STORAGE" ON UNIT  53 AT TIME STEP 30, STRESS PERIOD   3
 UBDSV2 SAVING "   CONSTANT HEAD" ON UNIT  53 AT TIME STEP 30, STRESS PERIOD   3
 UBDSV1 SAVING "FLOW RIGHT FACE " ON UNIT  53 AT TIME STEP 30, STRESS PERIOD   3
 UBDSV1 SAVING "FLOW FRONT FACE " ON UNIT  53 AT TIME STEP 30, STRESS PERIOD   3
 UBDSV1 SAVING "FLOW LOWER FACE " ON UNIT  53 AT TIME STEP 30, STRESS PERIOD   3
1
              HEAD IN LAYER   1 AT END OF TIME STEP  30 IN STRESS PERIOD    3
  ---------------------------------------------------------------------------

            1           2           3           4           5           6           7           8           9          10
 ........................................................................................................................
   1    9.997       8.887       7.776       6.666       5.555       4.445       3.335       2.224       1.114      3.3313E-03
   2    9.997       8.887       7.776       6.666       5.555       4.445       3.335       2.224       1.114      3.3313E-03
   3    9.997       8.887       7.776       6.666       5.555       4.445       3.335       2.224       1.114      3.3313E-03
   4    9.997       8.887       7.776       6.666       5.555       4.445       3.335       2.224       1.114      3.3313E-03
   5    9.997       8.887       7.776       6.666       5.555       4.445       3.335       2.224       1.114      3.3313E-03
   6    9.997       8.887       7.776       6.666       5.555       4.445       3.335       2.224       1.114      3.3313E-03
   7    9.997       8.887       7.776       6.666       5.555       4.445       3.335       2.224       1.114      3.3313E-03
   8    9.997       8.887       7.776       6.666       5.555       4.445       3.335       2.224       1.114      3.3313E-03
   9    9.997       8.887       7.776       6.666       5.555       4.445       3.335       2.224       1.114      3.3313E-03
  10    9.997       8.887       7.776       6.666       5.555       4.445       3.335       2.224       1.114      3.3313E-03
1
              HEAD IN LAYER   2 AT END OF TIME STEP  30 IN STRESS PERIOD    3
  ---------------------------------------------------------------------------

            1           2           3           4           5           6           7           8           9          10
 ........................................................................................................................
   1    9.997       8.887       7.776       6.666       5.555       4.445       3.335       2.224       1.114      3.3313E-03
   2    9.997       8.887       7.776       6.666       5.555       4.445       3.335       2.224       1.114      3.3313E-03
   3    9.997       8.887       7.776       6.666       5.555       4.445       3.335       2.224       1.114      3.3313E-03
   4    9.997       8.887       7.776       6.666       5.555       4.445       3.335       2.224       1.114      3.3313E-03
   5    9.997       8.887       7.776       6.666       5.555       4.445       3.335       2.224       1.114      3.3313E-03
   6    9.997       8.887       7.776       6.666       5.555       4.445       3.335       2.224       1.114      3.3313E-03
   7    9.997       8.887       7.776       6.666       5.555       4.445       3.335       2.224       1.114      3.3313E-03
   8    9.997       8.887       7.776       6.666       5.555       4.445       3.335       2.224       1.114      3.3313E-03
   9    9.997       8.887       7.776       6.666       5.555       4.445       3.335       2.224       1.114      3.3313E-03
  10    9.997       8.887       7.776       6.666       5.555       4.445       3.335       2.224       1.114      3.3313E-03
1
              HEAD IN LAYER   3 AT END OF TIME STEP  30 IN STRESS PERIOD    3
  ---------------------------------------------------------------------------

            1           2           3           4           5           6           7           8           9          10
 ........................................................................................................................
   1    9.997       8.887       7.776       6.666       5.555       4.445       3.335       2.224       1.114      3.3313E-03
   2    9.997       8.887       7.776       6.666       5.555       4.445       3.335       2.224       1.114      3.3313E-03
   3    9.997       8.887       7.776       6.666       5.555       4.445       3.335       2.224       1.114      3.3313E-03
   4    9.997       8.887       7.776       6.666       5.555       4.445       3.335       2.224       1.114      3.3313E-03
   5    9.997       8.887       7.776       6.666       5.555       4.445       3.335       2.224       1.114      3.3313E-03
   6    9.997       8.887       7.776       6.666       5.555       4.445       3.335       2.224       1.114      3.3313E-03
   7    9.997       8.887       7.776       6.666       5.555       4.445       3.335       2.224       1.114      3.3313E-03
   8    9.997       8.887       7.776       6.666       5.555       4.445       3.335       2.224       1.114      3.3313E-03
   9    9.997       8.887       7.776       6.666       5.555       4.445       3.335       2.224       1.114      3.3313E-03
  10    9.997       8.887       7.776       6.666       5.555       4.445       3.335       2.224       1.114      3.3313E-03
1
              HEAD IN LAYER   4 AT END OF TIME STEP  30 IN STRESS PERIOD    3
  ---------------------------------------------------------------------------

            1           2           3           4           5           6           7           8           9          10
 ........................................................................................................................
   1    9.997       8.887       7.776       6.666       5.555       4.445       3.335       2.224       1.114      3.3313E-03
   2    9.997       8.887       7.776       6.666       5.555       4.445       3.335       2.224       1.114      3.3313E-03
   3    9.997       8.887       7.776       6.666       5.555       4.445       3.335       2.224       1.114      3.3313E-03
   4    9.997       8.887       7.776       6.666       5.555       4.445       3.335       2.224       1.114      3.3313E-03
   5    9.997       8.887       7.776       6.666       5.555       4.445       3.335       2.224       1.114      3.3313E-03
   6    9.997       8.887       7.776       6.666       5.555       4.445       3.335       2.224       1.114      3.3313E-03
   7    9.997       8.887       7.776       6.666       5.555       4.445       3.335       2.224       1.114      3.3313E-03
   8    9.997       8.887       7.776       6.666       5.555       4.445       3.335       2.224       1.114      3.3313E-03
   9    9.997       8.887       7.776       6.666       5.555       4.445       3.335       2.224       1.114      3.3313E-03
  10    9.997       8.887       7.776       6.666       5.555       4.445       3.335       2.224       1.114      3.3313E-03

 HEAD WILL BE SAVED ON UNIT   51 AT END OF TIME STEP   30, STRESS PERIOD    3

 DRAWDOWN WILL BE SAVED ON UNIT   52 AT END OF TIME STEP   30, STRESS PERIOD    3
1
  VOLUMETRIC BUDGET FOR ENTIRE MODEL AT END OF TIME STEP   30, STRESS PERIOD   3
  ------------------------------------------------------------------------------

     CUMULATIVE VOLUMES      L**3       RATES FOR THIS TIME STEP      L**3/T
     ------------------                 ------------------------

           IN:                                      IN:
           ---                                      ---
             STORAGE =       1.0477E-08               STORAGE =           0.0000
       CONSTANT HEAD =           0.0000         CONSTANT HEAD =           0.0000
               WELLS =           0.0000                 WELLS =           0.0000
     HEAD DEP BOUNDS =       87286.8828       HEAD DEP BOUNDS =         666.3123

            TOTAL IN =       87286.8828              TOTAL IN =         666.3123

          OUT:                                     OUT:
          ----                                     ----
             STORAGE =       5.2387E-08               STORAGE =           0.0000
       CONSTANT HEAD =           0.0000         CONSTANT HEAD =           0.0000
               WELLS =           0.0000                 WELLS =           0.0000
     HEAD DEP BOUNDS =       87279.8672       HEAD DEP BOUNDS =         666.2595

           TOTAL OUT =       87279.8672             TOTAL OUT =         666.2595

            IN - OUT =           7.0156              IN - OUT =       5.2795E-02

 PERCENT DISCREPANCY =           0.01     PERCENT DISCREPANCY =           0.01






         TIME SUMMARY AT END OF TIME STEP   30 IN STRESS PERIOD    3
                    SECONDS     MINUTES      HOURS       DAYS        YEARS
                    -----------------------------------------------------------
   TIME STEP LENGTH  86400.      1440.0      24.000      1.0000     2.73785E-03
 STRESS PERIOD TIME 2.59200E+06  43200.      720.00      30.000     8.21355E-02
         TOTAL TIME 1.13184E+07 1.88640E+05  3144.0      131.00     0.35866    
1
 
 SOLVING FOR HEAD 

 OUTPUT CONTROL FOR STRESS PERIOD    3   TIME STEP   31
    SAVE HEAD FOR ALL LAYERS
    SAVE DRAWDOWN FOR ALL LAYERS
    SAVE BUDGET
    PRINT HEAD FOR ALL LAYERS
    PRINT BUDGET
 UBDSV1 SAVING "         STORAGE" ON UNIT  53 AT TIME STEP 31, STRESS PERIOD   3
 UBDSV2 SAVING "   CONSTANT HEAD" ON UNIT  53 AT TIME STEP 31, STRESS PERIOD   3
 UBDSV1 SAVING "FLOW RIGHT FACE " ON UNIT  53 AT TIME STEP 31, STRESS PERIOD   3
 UBDSV1 SAVING "FLOW FRONT FACE " ON UNIT  53 AT TIME STEP 31, STRESS PERIOD   3
 UBDSV1 SAVING "FLOW LOWER FACE " ON UNIT  53 AT TIME STEP 31, STRESS PERIOD   3
1
              HEAD IN LAYER   1 AT END OF TIME STEP  31 IN STRESS PERIOD    3
  ---------------------------------------------------------------------------

            1           2           3           4           5           6           7           8           9          10
 ........................................................................................................................
   1    9.997       8.887       7.776       6.666       5.555       4.445       3.335       2.224       1.114      3.3313E-03
   2    9.997       8.887       7.776       6.666       5.555       4.445       3.335       2.224       1.114      3.3313E-03
   3    9.997       8.887       7.776       6.666       5.555       4.445       3.335       2.224       1.114      3.3313E-03
   4    9.997       8.887       7.776       6.666       5.555       4.445       3.335       2.224       1.114      3.3313E-03
   5    9.997       8.887       7.776       6.666       5.555       4.445       3.335       2.224       1.114      3.3313E-03
   6    9.997       8.887       7.776       6.666       5.555       4.445       3.335       2.224       1.114      3.3313E-03
   7    9.997       8.887       7.776       6.666       5.555       4.445       3.335       2.224       1.114      3.3313E-03
   8    9.997       8.887       7.776       6.666       5.555       4.445       3.335       2.224       1.114      3.3313E-03
   9    9.997       8.887       7.776       6.666       5.555       4.445       3.335       2.224       1.114      3.3313E-03
  10    9.997       8.887       7.776       6.666       5.555       4.445       3.335       2.224       1.114      3.3313E-03
1
              HEAD IN LAYER   2 AT END OF TIME STEP  31 IN STRESS PERIOD    3
  ---------------------------------------------------------------------------

            1           2           3           4           5           6           7           8           9          10
 ........................................................................................................................
   1    9.997       8.887       7.776       6.666       5.555       4.445       3.335       2.224       1.114      3.3313E-03
   2    9.997       8.887       7.776       6.666       5.555       4.445       3.335       2.224       1.114      3.3313E-03
   3    9.997       8.887       7.776       6.666       5.555       4.445       3.335       2.224       1.114      3.3313E-03
   4    9.997       8.887       7.776       6.666       5.555       4.445       3.335       2.224       1.114      3.3313E-03
   5    9.997       8.887       7.776       6.666       5.555       4.445       3.335       2.224       1.114      3.3313E-03
   6    9.997       8.887       7.776       6.666       5.555       4.445       3.335       2.224       1.114      3.3313E-03
   7    9.997       8.887       7.776       6.666       5.555       4.445       3.335       2.224       1.114      3.3313E-03
   8    9.997       8.887       7.776       6.666       5.555       4.445       3.335       2.224       1.114      3.3313E-03
   9    9.997       8.887       7.776       6.666       5.555       4.445       3.335       2.224       1.114      3.3313E-03
  10    9.997       8.887       7.776       6.666       5.555       4.445       3.335       2.224       1.114      3.3313E-03
1
              HEAD IN LAYER   3 AT END OF TIME STEP  31 IN STRESS PERIOD    3
  ---------------------------------------------------------------------------

            1           2           3           4           5           6           7           8           9          10
 ........................................................................................................................
   1    9.997       8.887       7.776       6.666       5.555       4.445       3.335       2.224       1.114      3.3313E-03
   2    9.997       8.887       7.776       6.666       5.555       4.445       3.335       2.224       1.114      3.3313E-03
   3    9.997       8.887       7.776       6.666       5.555       4.445       3.335       2.224       1.114      3.3313E-03
   4    9.997       8.887       7.776       6.666       5.555       4.445       3.335       2.224       1.114      3.3313E-03
   5    9.997       8.887       7.776       6.666       5.555       4.445       3.335       2.224       1.114      3.3313E-03
   6    9.997       8.887       7.776       6.666       5.555       4.445       3.335       2.224       1.114      3.3313E-03
   7    9.997       8.887       7.776       6.666       5.555       4.445       3.335       2.224       1.114      3.3313E-03
   8    9.997       8.887       7.776       6.666       5.555       4.445       3.335       2.224       1.114      3.3313E-03
   9    9.997       8.887       7.776       6.666       5.555       4.445       3.335       2.224       1.114      3.3313E-03
  10    9.997       8.887       7.776       6.666       5.555       4.445       3.335       2.224       1.114      3.3313E-03
1
              HEAD IN LAYER   4 AT END OF TIME STEP  31 IN STRESS PERIOD    3
  ---------------------------------------------------------------------------

            1           2           3           4           5           6           7           8           9          10
 ........................................................................................................................
   1    9.997       8.887       7.776       6.666       5.555       4.445       3.335       2.224       1.114      3.3313E-03
   2    9.997       8.887       7.776       6.666       5.555       4.445       3.335       2.224       1.114      3.3313E-03
   3    9.997       8.887       7.776       6.666       5.555       4.445       3.335       2.224       1.114      3.3313E-03
   4    9.997       8.887       7.776       6.666       5.555       4.445       3.335       2.224       1.114      3.3313E-03
   5    9.997       8.887       7.776       6.666       5.555       4.445       3.335       2.224       1.114      3.3313E-03
   6    9.997       8.887       7.776       6.666       5.555       4.445       3.335       2.224       1.114      3.3313E-03
   7    9.997       8.887       7.776       6.666       5.555       4.445       3.335       2.224       1.114      3.3313E-03
   8    9.997       8.887       7.776       6.666       5.555       4.445       3.335       2.224       1.114      3.3313E-03
   9    9.997       8.887       7.776       6.666       5.555       4.445       3.335       2.224       1.114      3.3313E-03
  10    9.997       8.887       7.776       6.666       5.555       4.445       3.335       2.224       1.114      3.3313E-03

 HEAD WILL BE SAVED ON UNIT   51 AT END OF TIME STEP   31, STRESS PERIOD    3

 DRAWDOWN WILL BE SAVED ON UNIT   52 AT END OF TIME STEP   31, STRESS PERIOD    3
1
  VOLUMETRIC BUDGET FOR ENTIRE MODEL AT END OF TIME STEP   31, STRESS PERIOD   3
  ------------------------------------------------------------------------------

     CUMULATIVE VOLUMES      L**3       RATES FOR THIS TIME STEP      L**3/T
     ------------------                 ------------------------

           IN:                                      IN:
           ---                                      ---
             STORAGE =       1.0477E-08               STORAGE =           0.0000
       CONSTANT HEAD =           0.0000         CONSTANT HEAD =           0.0000
               WELLS =           0.0000                 WELLS =           0.0000
     HEAD DEP BOUNDS =       87953.1953       HEAD DEP BOUNDS =         666.3123

            TOTAL IN =       87953.1953              TOTAL IN =         666.3123

          OUT:                                     OUT:
          ----                                     ----
             STORAGE =       5.2387E-08               STORAGE =           0.0000
       CONSTANT HEAD =           0.0000         CONSTANT HEAD =           0.0000
               WELLS =           0.0000                 WELLS =           0.0000
     HEAD DEP BOUNDS =       87946.1250       HEAD DEP BOUNDS =         666.2595

           TOTAL OUT =       87946.1250             TOTAL OUT =         666.2595

            IN - OUT =           7.0703              IN - OUT =       5.2795E-02

 PERCENT DISCREPANCY =           0.01     PERCENT DISCREPANCY =           0.01






         TIME SUMMARY AT END OF TIME STEP   31 IN STRESS PERIOD    3
                    SECONDS     MINUTES      HOURS       DAYS        YEARS
                    -----------------------------------------------------------
   TIME STEP LENGTH  86400.      1440.0      24.000      1.0000     2.73785E-03
 STRESS PERIOD TIME 2.67840E+06  44640.      744.00      31.000     8.48734E-02
         TOTAL TIME 1.14048E+07 1.90080E+05  3168.0      132.00     0.36140    
1
 
 SOLVING FOR HEAD 

 OUTPUT CONTROL FOR STRESS PERIOD    3   TIME STEP   32
    SAVE HEAD FOR ALL LAYERS
    SAVE DRAWDOWN FOR ALL LAYERS
    SAVE BUDGET
    PRINT HEAD FOR ALL LAYERS
    PRINT BUDGET
 UBDSV1 SAVING "         STORAGE" ON UNIT  53 AT TIME STEP 32, STRESS PERIOD   3
 UBDSV2 SAVING "   CONSTANT HEAD" ON UNIT  53 AT TIME STEP 32, STRESS PERIOD   3
 UBDSV1 SAVING "FLOW RIGHT FACE " ON UNIT  53 AT TIME STEP 32, STRESS PERIOD   3
 UBDSV1 SAVING "FLOW FRONT FACE " ON UNIT  53 AT TIME STEP 32, STRESS PERIOD   3
 UBDSV1 SAVING "FLOW LOWER FACE " ON UNIT  53 AT TIME STEP 32, STRESS PERIOD   3
1
              HEAD IN LAYER   1 AT END OF TIME STEP  32 IN STRESS PERIOD    3
  ---------------------------------------------------------------------------

            1           2           3           4           5           6           7           8           9          10
 ........................................................................................................................
   1    9.997       8.887       7.776       6.666       5.555       4.445       3.335       2.224       1.114      3.3313E-03
   2    9.997       8.887       7.776       6.666       5.555       4.445       3.335       2.224       1.114      3.3313E-03
   3    9.997       8.887       7.776       6.666       5.555       4.445       3.335       2.224       1.114      3.3313E-03
   4    9.997       8.887       7.776       6.666       5.555       4.445       3.335       2.224       1.114      3.3313E-03
   5    9.997       8.887       7.776       6.666       5.555       4.445       3.335       2.224       1.114      3.3313E-03
   6    9.997       8.887       7.776       6.666       5.555       4.445       3.335       2.224       1.114      3.3313E-03
   7    9.997       8.887       7.776       6.666       5.555       4.445       3.335       2.224       1.114      3.3313E-03
   8    9.997       8.887       7.776       6.666       5.555       4.445       3.335       2.224       1.114      3.3313E-03
   9    9.997       8.887       7.776       6.666       5.555       4.445       3.335       2.224       1.114      3.3313E-03
  10    9.997       8.887       7.776       6.666       5.555       4.445       3.335       2.224       1.114      3.3313E-03
1
              HEAD IN LAYER   2 AT END OF TIME STEP  32 IN STRESS PERIOD    3
  ---------------------------------------------------------------------------

            1           2           3           4           5           6           7           8           9          10
 ........................................................................................................................
   1    9.997       8.887       7.776       6.666       5.555       4.445       3.335       2.224       1.114      3.3313E-03
   2    9.997       8.887       7.776       6.666       5.555       4.445       3.335       2.224       1.114      3.3313E-03
   3    9.997       8.887       7.776       6.666       5.555       4.445       3.335       2.224       1.114      3.3313E-03
   4    9.997       8.887       7.776       6.666       5.555       4.445       3.335       2.224       1.114      3.3313E-03
   5    9.997       8.887       7.776       6.666       5.555       4.445       3.335       2.224       1.114      3.3313E-03
   6    9.997       8.887       7.776       6.666       5.555       4.445       3.335       2.224       1.114      3.3313E-03
   7    9.997       8.887       7.776       6.666       5.555       4.445       3.335       2.224       1.114      3.3313E-03
   8    9.997       8.887       7.776       6.666       5.555       4.445       3.335       2.224       1.114      3.3313E-03
   9    9.997       8.887       7.776       6.666       5.555       4.445       3.335       2.224       1.114      3.3313E-03
  10    9.997       8.887       7.776       6.666       5.555       4.445       3.335       2.224       1.114      3.3313E-03
1
              HEAD IN LAYER   3 AT END OF TIME STEP  32 IN STRESS PERIOD    3
  ---------------------------------------------------------------------------

            1           2           3           4           5           6           7           8           9          10
 ........................................................................................................................
   1    9.997       8.887       7.776       6.666       5.555       4.445       3.335       2.224       1.114      3.3313E-03
   2    9.997       8.887       7.776       6.666       5.555       4.445       3.335       2.224       1.114      3.3313E-03
   3    9.997       8.887       7.776       6.666       5.555       4.445       3.335       2.224       1.114      3.3313E-03
   4    9.997       8.887       7.776       6.666       5.555       4.445       3.335       2.224       1.114      3.3313E-03
   5    9.997       8.887       7.776       6.666       5.555       4.445       3.335       2.224       1.114      3.3313E-03
   6    9.997       8.887       7.776       6.666       5.555       4.445       3.335       2.224       1.114      3.3313E-03
   7    9.997       8.887       7.776       6.666       5.555       4.445       3.335       2.224       1.114      3.3313E-03
   8    9.997       8.887       7.776       6.666       5.555       4.445       3.335       2.224       1.114      3.3313E-03
   9    9.997       8.887       7.776       6.666       5.555       4.445       3.335       2.224       1.114      3.3313E-03
  10    9.997       8.887       7.776       6.666       5.555       4.445       3.335       2.224       1.114      3.3313E-03
1
              HEAD IN LAYER   4 AT END OF TIME STEP  32 IN STRESS PERIOD    3
  ---------------------------------------------------------------------------

            1           2           3           4           5           6           7           8           9          10
 ........................................................................................................................
   1    9.997       8.887       7.776       6.666       5.555       4.445       3.335       2.224       1.114      3.3313E-03
   2    9.997       8.887       7.776       6.666       5.555       4.445       3.335       2.224       1.114      3.3313E-03
   3    9.997       8.887       7.776       6.666       5.555       4.445       3.335       2.224       1.114      3.3313E-03
   4    9.997       8.887       7.776       6.666       5.555       4.445       3.335       2.224       1.114      3.3313E-03
   5    9.997       8.887       7.776       6.666       5.555       4.445       3.335       2.224       1.114      3.3313E-03
   6    9.997       8.887       7.776       6.666       5.555       4.445       3.335       2.224       1.114      3.3313E-03
   7    9.997       8.887       7.776       6.666       5.555       4.445       3.335       2.224       1.114      3.3313E-03
   8    9.997       8.887       7.776       6.666       5.555       4.445       3.335       2.224       1.114      3.3313E-03
   9    9.997       8.887       7.776       6.666       5.555       4.445       3.335       2.224       1.114      3.3313E-03
  10    9.997       8.887       7.776       6.666       5.555       4.445       3.335       2.224       1.114      3.3313E-03

 HEAD WILL BE SAVED ON UNIT   51 AT END OF TIME STEP   32, STRESS PERIOD    3

 DRAWDOWN WILL BE SAVED ON UNIT   52 AT END OF TIME STEP   32, STRESS PERIOD    3
1
  VOLUMETRIC BUDGET FOR ENTIRE MODEL AT END OF TIME STEP   32, STRESS PERIOD   3
  ------------------------------------------------------------------------------

     CUMULATIVE VOLUMES      L**3       RATES FOR THIS TIME STEP      L**3/T
     ------------------                 ------------------------

           IN:                                      IN:
           ---                                      ---
             STORAGE =       1.0477E-08               STORAGE =           0.0000
       CONSTANT HEAD =           0.0000         CONSTANT HEAD =           0.0000
               WELLS =           0.0000                 WELLS =           0.0000
     HEAD DEP BOUNDS =       88619.5078       HEAD DEP BOUNDS =         666.3123

            TOTAL IN =       88619.5078              TOTAL IN =         666.3123

          OUT:                                     OUT:
          ----                                     ----
             STORAGE =       5.2387E-08               STORAGE =           0.0000
       CONSTANT HEAD =           0.0000         CONSTANT HEAD =           0.0000
               WELLS =           0.0000                 WELLS =           0.0000
     HEAD DEP BOUNDS =       88612.3828       HEAD DEP BOUNDS =         666.2595

           TOTAL OUT =       88612.3828             TOTAL OUT =         666.2595

            IN - OUT =           7.1250              IN - OUT =       5.2795E-02

 PERCENT DISCREPANCY =           0.01     PERCENT DISCREPANCY =           0.01






         TIME SUMMARY AT END OF TIME STEP   32 IN STRESS PERIOD    3
                    SECONDS     MINUTES      HOURS       DAYS        YEARS
                    -----------------------------------------------------------
   TIME STEP LENGTH  86400.      1440.0      24.000      1.0000     2.73785E-03
 STRESS PERIOD TIME 2.76480E+06  46080.      768.00      32.000     8.76112E-02
         TOTAL TIME 1.14912E+07 1.91520E+05  3192.0      133.00     0.36413    
1
 
 SOLVING FOR HEAD 

 OUTPUT CONTROL FOR STRESS PERIOD    3   TIME STEP   33
    SAVE HEAD FOR ALL LAYERS
    SAVE DRAWDOWN FOR ALL LAYERS
    SAVE BUDGET
    PRINT HEAD FOR ALL LAYERS
    PRINT BUDGET
 UBDSV1 SAVING "         STORAGE" ON UNIT  53 AT TIME STEP 33, STRESS PERIOD   3
 UBDSV2 SAVING "   CONSTANT HEAD" ON UNIT  53 AT TIME STEP 33, STRESS PERIOD   3
 UBDSV1 SAVING "FLOW RIGHT FACE " ON UNIT  53 AT TIME STEP 33, STRESS PERIOD   3
 UBDSV1 SAVING "FLOW FRONT FACE " ON UNIT  53 AT TIME STEP 33, STRESS PERIOD   3
 UBDSV1 SAVING "FLOW LOWER FACE " ON UNIT  53 AT TIME STEP 33, STRESS PERIOD   3
1
              HEAD IN LAYER   1 AT END OF TIME STEP  33 IN STRESS PERIOD    3
  ---------------------------------------------------------------------------

            1           2           3           4           5           6           7           8           9          10
 ........................................................................................................................
   1    9.997       8.887       7.776       6.666       5.555       4.445       3.335       2.224       1.114      3.3313E-03
   2    9.997       8.887       7.776       6.666       5.555       4.445       3.335       2.224       1.114      3.3313E-03
   3    9.997       8.887       7.776       6.666       5.555       4.445       3.335       2.224       1.114      3.3313E-03
   4    9.997       8.887       7.776       6.666       5.555       4.445       3.335       2.224       1.114      3.3313E-03
   5    9.997       8.887       7.776       6.666       5.555       4.445       3.335       2.224       1.114      3.3313E-03
   6    9.997       8.887       7.776       6.666       5.555       4.445       3.335       2.224       1.114      3.3313E-03
   7    9.997       8.887       7.776       6.666       5.555       4.445       3.335       2.224       1.114      3.3313E-03
   8    9.997       8.887       7.776       6.666       5.555       4.445       3.335       2.224       1.114      3.3313E-03
   9    9.997       8.887       7.776       6.666       5.555       4.445       3.335       2.224       1.114      3.3313E-03
  10    9.997       8.887       7.776       6.666       5.555       4.445       3.335       2.224       1.114      3.3313E-03
1
              HEAD IN LAYER   2 AT END OF TIME STEP  33 IN STRESS PERIOD    3
  ---------------------------------------------------------------------------

            1           2           3           4           5           6           7           8           9          10
 ........................................................................................................................
   1    9.997       8.887       7.776       6.666       5.555       4.445       3.335       2.224       1.114      3.3313E-03
   2    9.997       8.887       7.776       6.666       5.555       4.445       3.335       2.224       1.114      3.3313E-03
   3    9.997       8.887       7.776       6.666       5.555       4.445       3.335       2.224       1.114      3.3313E-03
   4    9.997       8.887       7.776       6.666       5.555       4.445       3.335       2.224       1.114      3.3313E-03
   5    9.997       8.887       7.776       6.666       5.555       4.445       3.335       2.224       1.114      3.3313E-03
   6    9.997       8.887       7.776       6.666       5.555       4.445       3.335       2.224       1.114      3.3313E-03
   7    9.997       8.887       7.776       6.666       5.555       4.445       3.335       2.224       1.114      3.3313E-03
   8    9.997       8.887       7.776       6.666       5.555       4.445       3.335       2.224       1.114      3.3313E-03
   9    9.997       8.887       7.776       6.666       5.555       4.445       3.335       2.224       1.114      3.3313E-03
  10    9.997       8.887       7.776       6.666       5.555       4.445       3.335       2.224       1.114      3.3313E-03
1
              HEAD IN LAYER   3 AT END OF TIME STEP  33 IN STRESS PERIOD    3
  ---------------------------------------------------------------------------

            1           2           3           4           5           6           7           8           9          10
 ........................................................................................................................
   1    9.997       8.887       7.776       6.666       5.555       4.445       3.335       2.224       1.114      3.3313E-03
   2    9.997       8.887       7.776       6.666       5.555       4.445       3.335       2.224       1.114      3.3313E-03
   3    9.997       8.887       7.776       6.666       5.555       4.445       3.335       2.224       1.114      3.3313E-03
   4    9.997       8.887       7.776       6.666       5.555       4.445       3.335       2.224       1.114      3.3313E-03
   5    9.997       8.887       7.776       6.666       5.555       4.445       3.335       2.224       1.114      3.3313E-03
   6    9.997       8.887       7.776       6.666       5.555       4.445       3.335       2.224       1.114      3.3313E-03
   7    9.997       8.887       7.776       6.666       5.555       4.445       3.335       2.224       1.114      3.3313E-03
   8    9.997       8.887       7.776       6.666       5.555       4.445       3.335       2.224       1.114      3.3313E-03
   9    9.997       8.887       7.776       6.666       5.555       4.445       3.335       2.224       1.114      3.3313E-03
  10    9.997       8.887       7.776       6.666       5.555       4.445       3.335       2.224       1.114      3.3313E-03
1
              HEAD IN LAYER   4 AT END OF TIME STEP  33 IN STRESS PERIOD    3
  ---------------------------------------------------------------------------

            1           2           3           4           5           6           7           8           9          10
 ........................................................................................................................
   1    9.997       8.887       7.776       6.666       5.555       4.445       3.335       2.224       1.114      3.3313E-03
   2    9.997       8.887       7.776       6.666       5.555       4.445       3.335       2.224       1.114      3.3313E-03
   3    9.997       8.887       7.776       6.666       5.555       4.445       3.335       2.224       1.114      3.3313E-03
   4    9.997       8.887       7.776       6.666       5.555       4.445       3.335       2.224       1.114      3.3313E-03
   5    9.997       8.887       7.776       6.666       5.555       4.445       3.335       2.224       1.114      3.3313E-03
   6    9.997       8.887       7.776       6.666       5.555       4.445       3.335       2.224       1.114      3.3313E-03
   7    9.997       8.887       7.776       6.666       5.555       4.445       3.335       2.224       1.114      3.3313E-03
   8    9.997       8.887       7.776       6.666       5.555       4.445       3.335       2.224       1.114      3.3313E-03
   9    9.997       8.887       7.776       6.666       5.555       4.445       3.335       2.224       1.114      3.3313E-03
  10    9.997       8.887       7.776       6.666       5.555       4.445       3.335       2.224       1.114      3.3313E-03

 HEAD WILL BE SAVED ON UNIT   51 AT END OF TIME STEP   33, STRESS PERIOD    3

 DRAWDOWN WILL BE SAVED ON UNIT   52 AT END OF TIME STEP   33, STRESS PERIOD    3
1
  VOLUMETRIC BUDGET FOR ENTIRE MODEL AT END OF TIME STEP   33, STRESS PERIOD   3
  ------------------------------------------------------------------------------

     CUMULATIVE VOLUMES      L**3       RATES FOR THIS TIME STEP      L**3/T
     ------------------                 ------------------------

           IN:                                      IN:
           ---                                      ---
             STORAGE =       1.0477E-08               STORAGE =           0.0000
       CONSTANT HEAD =           0.0000         CONSTANT HEAD =           0.0000
               WELLS =           0.0000                 WELLS =           0.0000
     HEAD DEP BOUNDS =       89285.8203       HEAD DEP BOUNDS =         666.3123

            TOTAL IN =       89285.8203              TOTAL IN =         666.3123

          OUT:                                     OUT:
          ----                                     ----
             STORAGE =       5.2387E-08               STORAGE =           0.0000
       CONSTANT HEAD =           0.0000         CONSTANT HEAD =           0.0000
               WELLS =           0.0000                 WELLS =           0.0000
     HEAD DEP BOUNDS =       89278.6406       HEAD DEP BOUNDS =         666.2595

           TOTAL OUT =       89278.6406             TOTAL OUT =         666.2595

            IN - OUT =           7.1797              IN - OUT =       5.2795E-02

 PERCENT DISCREPANCY =           0.01     PERCENT DISCREPANCY =           0.01






         TIME SUMMARY AT END OF TIME STEP   33 IN STRESS PERIOD    3
                    SECONDS     MINUTES      HOURS       DAYS        YEARS
                    -----------------------------------------------------------
   TIME STEP LENGTH  86400.      1440.0      24.000      1.0000     2.73785E-03
 STRESS PERIOD TIME 2.85120E+06  47520.      792.00      33.000     9.03491E-02
         TOTAL TIME 1.15776E+07 1.92960E+05  3216.0      134.00     0.36687    
1
 
 SOLVING FOR HEAD 

 OUTPUT CONTROL FOR STRESS PERIOD    3   TIME STEP   34
    SAVE HEAD FOR ALL LAYERS
    SAVE DRAWDOWN FOR ALL LAYERS
    SAVE BUDGET
    PRINT HEAD FOR ALL LAYERS
    PRINT BUDGET
 UBDSV1 SAVING "         STORAGE" ON UNIT  53 AT TIME STEP 34, STRESS PERIOD   3
 UBDSV2 SAVING "   CONSTANT HEAD" ON UNIT  53 AT TIME STEP 34, STRESS PERIOD   3
 UBDSV1 SAVING "FLOW RIGHT FACE " ON UNIT  53 AT TIME STEP 34, STRESS PERIOD   3
 UBDSV1 SAVING "FLOW FRONT FACE " ON UNIT  53 AT TIME STEP 34, STRESS PERIOD   3
 UBDSV1 SAVING "FLOW LOWER FACE " ON UNIT  53 AT TIME STEP 34, STRESS PERIOD   3
1
              HEAD IN LAYER   1 AT END OF TIME STEP  34 IN STRESS PERIOD    3
  ---------------------------------------------------------------------------

            1           2           3           4           5           6           7           8           9          10
 ........................................................................................................................
   1    9.997       8.887       7.776       6.666       5.555       4.445       3.335       2.224       1.114      3.3313E-03
   2    9.997       8.887       7.776       6.666       5.555       4.445       3.335       2.224       1.114      3.3313E-03
   3    9.997       8.887       7.776       6.666       5.555       4.445       3.335       2.224       1.114      3.3313E-03
   4    9.997       8.887       7.776       6.666       5.555       4.445       3.335       2.224       1.114      3.3313E-03
   5    9.997       8.887       7.776       6.666       5.555       4.445       3.335       2.224       1.114      3.3313E-03
   6    9.997       8.887       7.776       6.666       5.555       4.445       3.335       2.224       1.114      3.3313E-03
   7    9.997       8.887       7.776       6.666       5.555       4.445       3.335       2.224       1.114      3.3313E-03
   8    9.997       8.887       7.776       6.666       5.555       4.445       3.335       2.224       1.114      3.3313E-03
   9    9.997       8.887       7.776       6.666       5.555       4.445       3.335       2.224       1.114      3.3313E-03
  10    9.997       8.887       7.776       6.666       5.555       4.445       3.335       2.224       1.114      3.3313E-03
1
              HEAD IN LAYER   2 AT END OF TIME STEP  34 IN STRESS PERIOD    3
  ---------------------------------------------------------------------------

            1           2           3           4           5           6           7           8           9          10
 ........................................................................................................................
   1    9.997       8.887       7.776       6.666       5.555       4.445       3.335       2.224       1.114      3.3313E-03
   2    9.997       8.887       7.776       6.666       5.555       4.445       3.335       2.224       1.114      3.3313E-03
   3    9.997       8.887       7.776       6.666       5.555       4.445       3.335       2.224       1.114      3.3313E-03
   4    9.997       8.887       7.776       6.666       5.555       4.445       3.335       2.224       1.114      3.3313E-03
   5    9.997       8.887       7.776       6.666       5.555       4.445       3.335       2.224       1.114      3.3313E-03
   6    9.997       8.887       7.776       6.666       5.555       4.445       3.335       2.224       1.114      3.3313E-03
   7    9.997       8.887       7.776       6.666       5.555       4.445       3.335       2.224       1.114      3.3313E-03
   8    9.997       8.887       7.776       6.666       5.555       4.445       3.335       2.224       1.114      3.3313E-03
   9    9.997       8.887       7.776       6.666       5.555       4.445       3.335       2.224       1.114      3.3313E-03
  10    9.997       8.887       7.776       6.666       5.555       4.445       3.335       2.224       1.114      3.3313E-03
1
              HEAD IN LAYER   3 AT END OF TIME STEP  34 IN STRESS PERIOD    3
  ---------------------------------------------------------------------------

            1           2           3           4           5           6           7           8           9          10
 ........................................................................................................................
   1    9.997       8.887       7.776       6.666       5.555       4.445       3.335       2.224       1.114      3.3313E-03
   2    9.997       8.887       7.776       6.666       5.555       4.445       3.335       2.224       1.114      3.3313E-03
   3    9.997       8.887       7.776       6.666       5.555       4.445       3.335       2.224       1.114      3.3313E-03
   4    9.997       8.887       7.776       6.666       5.555       4.445       3.335       2.224       1.114      3.3313E-03
   5    9.997       8.887       7.776       6.666       5.555       4.445       3.335       2.224       1.114      3.3313E-03
   6    9.997       8.887       7.776       6.666       5.555       4.445       3.335       2.224       1.114      3.3313E-03
   7    9.997       8.887       7.776       6.666       5.555       4.445       3.335       2.224       1.114      3.3313E-03
   8    9.997       8.887       7.776       6.666       5.555       4.445       3.335       2.224       1.114      3.3313E-03
   9    9.997       8.887       7.776       6.666       5.555       4.445       3.335       2.224       1.114      3.3313E-03
  10    9.997       8.887       7.776       6.666       5.555       4.445       3.335       2.224       1.114      3.3313E-03
1
              HEAD IN LAYER   4 AT END OF TIME STEP  34 IN STRESS PERIOD    3
  ---------------------------------------------------------------------------

            1           2           3           4           5           6           7           8           9          10
 ........................................................................................................................
   1    9.997       8.887       7.776       6.666       5.555       4.445       3.335       2.224       1.114      3.3313E-03
   2    9.997       8.887       7.776       6.666       5.555       4.445       3.335       2.224       1.114      3.3313E-03
   3    9.997       8.887       7.776       6.666       5.555       4.445       3.335       2.224       1.114      3.3313E-03
   4    9.997       8.887       7.776       6.666       5.555       4.445       3.335       2.224       1.114      3.3313E-03
   5    9.997       8.887       7.776       6.666       5.555       4.445       3.335       2.224       1.114      3.3313E-03
   6    9.997       8.887       7.776       6.666       5.555       4.445       3.335       2.224       1.114      3.3313E-03
   7    9.997       8.887       7.776       6.666       5.555       4.445       3.335       2.224       1.114      3.3313E-03
   8    9.997       8.887       7.776       6.666       5.555       4.445       3.335       2.224       1.114      3.3313E-03
   9    9.997       8.887       7.776       6.666       5.555       4.445       3.335       2.224       1.114      3.3313E-03
  10    9.997       8.887       7.776       6.666       5.555       4.445       3.335       2.224       1.114      3.3313E-03

 HEAD WILL BE SAVED ON UNIT   51 AT END OF TIME STEP   34, STRESS PERIOD    3

 DRAWDOWN WILL BE SAVED ON UNIT   52 AT END OF TIME STEP   34, STRESS PERIOD    3
1
  VOLUMETRIC BUDGET FOR ENTIRE MODEL AT END OF TIME STEP   34, STRESS PERIOD   3
  ------------------------------------------------------------------------------

     CUMULATIVE VOLUMES      L**3       RATES FOR THIS TIME STEP      L**3/T
     ------------------                 ------------------------

           IN:                                      IN:
           ---                                      ---
             STORAGE =       1.0477E-08               STORAGE =           0.0000
       CONSTANT HEAD =           0.0000         CONSTANT HEAD =           0.0000
               WELLS =           0.0000                 WELLS =           0.0000
     HEAD DEP BOUNDS =       89952.1328       HEAD DEP BOUNDS =         666.3123

            TOTAL IN =       89952.1328              TOTAL IN =         666.3123

          OUT:                                     OUT:
          ----                                     ----
             STORAGE =       5.2387E-08               STORAGE =           0.0000
       CONSTANT HEAD =           0.0000         CONSTANT HEAD =           0.0000
               WELLS =           0.0000                 WELLS =           0.0000
     HEAD DEP BOUNDS =       89944.8984       HEAD DEP BOUNDS =         666.2595

           TOTAL OUT =       89944.8984             TOTAL OUT =         666.2595

            IN - OUT =           7.2344              IN - OUT =       5.2795E-02

 PERCENT DISCREPANCY =           0.01     PERCENT DISCREPANCY =           0.01






         TIME SUMMARY AT END OF TIME STEP   34 IN STRESS PERIOD    3
                    SECONDS     MINUTES      HOURS       DAYS        YEARS
                    -----------------------------------------------------------
   TIME STEP LENGTH  86400.      1440.0      24.000      1.0000     2.73785E-03
 STRESS PERIOD TIME 2.93760E+06  48960.      816.00      34.000     9.30869E-02
         TOTAL TIME 1.16640E+07 1.94400E+05  3240.0      135.00     0.36961    
1
 
 SOLVING FOR HEAD 

 OUTPUT CONTROL FOR STRESS PERIOD    3   TIME STEP   35
    SAVE HEAD FOR ALL LAYERS
    SAVE DRAWDOWN FOR ALL LAYERS
    SAVE BUDGET
    PRINT HEAD FOR ALL LAYERS
    PRINT BUDGET
 UBDSV1 SAVING "         STORAGE" ON UNIT  53 AT TIME STEP 35, STRESS PERIOD   3
 UBDSV2 SAVING "   CONSTANT HEAD" ON UNIT  53 AT TIME STEP 35, STRESS PERIOD   3
 UBDSV1 SAVING "FLOW RIGHT FACE " ON UNIT  53 AT TIME STEP 35, STRESS PERIOD   3
 UBDSV1 SAVING "FLOW FRONT FACE " ON UNIT  53 AT TIME STEP 35, STRESS PERIOD   3
 UBDSV1 SAVING "FLOW LOWER FACE " ON UNIT  53 AT TIME STEP 35, STRESS PERIOD   3
1
              HEAD IN LAYER   1 AT END OF TIME STEP  35 IN STRESS PERIOD    3
  ---------------------------------------------------------------------------

            1           2           3           4           5           6           7           8           9          10
 ........................................................................................................................
   1    9.997       8.887       7.776       6.666       5.555       4.445       3.335       2.224       1.114      3.3313E-03
   2    9.997       8.887       7.776       6.666       5.555       4.445       3.335       2.224       1.114      3.3313E-03
   3    9.997       8.887       7.776       6.666       5.555       4.445       3.335       2.224       1.114      3.3313E-03
   4    9.997       8.887       7.776       6.666       5.555       4.445       3.335       2.224       1.114      3.3313E-03
   5    9.997       8.887       7.776       6.666       5.555       4.445       3.335       2.224       1.114      3.3313E-03
   6    9.997       8.887       7.776       6.666       5.555       4.445       3.335       2.224       1.114      3.3313E-03
   7    9.997       8.887       7.776       6.666       5.555       4.445       3.335       2.224       1.114      3.3313E-03
   8    9.997       8.887       7.776       6.666       5.555       4.445       3.335       2.224       1.114      3.3313E-03
   9    9.997       8.887       7.776       6.666       5.555       4.445       3.335       2.224       1.114      3.3313E-03
  10    9.997       8.887       7.776       6.666       5.555       4.445       3.335       2.224       1.114      3.3313E-03
1
              HEAD IN LAYER   2 AT END OF TIME STEP  35 IN STRESS PERIOD    3
  ---------------------------------------------------------------------------

            1           2           3           4           5           6           7           8           9          10
 ........................................................................................................................
   1    9.997       8.887       7.776       6.666       5.555       4.445       3.335       2.224       1.114      3.3313E-03
   2    9.997       8.887       7.776       6.666       5.555       4.445       3.335       2.224       1.114      3.3313E-03
   3    9.997       8.887       7.776       6.666       5.555       4.445       3.335       2.224       1.114      3.3313E-03
   4    9.997       8.887       7.776       6.666       5.555       4.445       3.335       2.224       1.114      3.3313E-03
   5    9.997       8.887       7.776       6.666       5.555       4.445       3.335       2.224       1.114      3.3313E-03
   6    9.997       8.887       7.776       6.666       5.555       4.445       3.335       2.224       1.114      3.3313E-03
   7    9.997       8.887       7.776       6.666       5.555       4.445       3.335       2.224       1.114      3.3313E-03
   8    9.997       8.887       7.776       6.666       5.555       4.445       3.335       2.224       1.114      3.3313E-03
   9    9.997       8.887       7.776       6.666       5.555       4.445       3.335       2.224       1.114      3.3313E-03
  10    9.997       8.887       7.776       6.666       5.555       4.445       3.335       2.224       1.114      3.3313E-03
1
              HEAD IN LAYER   3 AT END OF TIME STEP  35 IN STRESS PERIOD    3
  ---------------------------------------------------------------------------

            1           2           3           4           5           6           7           8           9          10
 ........................................................................................................................
   1    9.997       8.887       7.776       6.666       5.555       4.445       3.335       2.224       1.114      3.3313E-03
   2    9.997       8.887       7.776       6.666       5.555       4.445       3.335       2.224       1.114      3.3313E-03
   3    9.997       8.887       7.776       6.666       5.555       4.445       3.335       2.224       1.114      3.3313E-03
   4    9.997       8.887       7.776       6.666       5.555       4.445       3.335       2.224       1.114      3.3313E-03
   5    9.997       8.887       7.776       6.666       5.555       4.445       3.335       2.224       1.114      3.3313E-03
   6    9.997       8.887       7.776       6.666       5.555       4.445       3.335       2.224       1.114      3.3313E-03
   7    9.997       8.887       7.776       6.666       5.555       4.445       3.335       2.224       1.114      3.3313E-03
   8    9.997       8.887       7.776       6.666       5.555       4.445       3.335       2.224       1.114      3.3313E-03
   9    9.997       8.887       7.776       6.666       5.555       4.445       3.335       2.224       1.114      3.3313E-03
  10    9.997       8.887       7.776       6.666       5.555       4.445       3.335       2.224       1.114      3.3313E-03
1
              HEAD IN LAYER   4 AT END OF TIME STEP  35 IN STRESS PERIOD    3
  ---------------------------------------------------------------------------

            1           2           3           4           5           6           7           8           9          10
 ........................................................................................................................
   1    9.997       8.887       7.776       6.666       5.555       4.445       3.335       2.224       1.114      3.3313E-03
   2    9.997       8.887       7.776       6.666       5.555       4.445       3.335       2.224       1.114      3.3313E-03
   3    9.997       8.887       7.776       6.666       5.555       4.445       3.335       2.224       1.114      3.3313E-03
   4    9.997       8.887       7.776       6.666       5.555       4.445       3.335       2.224       1.114      3.3313E-03
   5    9.997       8.887       7.776       6.666       5.555       4.445       3.335       2.224       1.114      3.3313E-03
   6    9.997       8.887       7.776       6.666       5.555       4.445       3.335       2.224       1.114      3.3313E-03
   7    9.997       8.887       7.776       6.666       5.555       4.445       3.335       2.224       1.114      3.3313E-03
   8    9.997       8.887       7.776       6.666       5.555       4.445       3.335       2.224       1.114      3.3313E-03
   9    9.997       8.887       7.776       6.666       5.555       4.445       3.335       2.224       1.114      3.3313E-03
  10    9.997       8.887       7.776       6.666       5.555       4.445       3.335       2.224       1.114      3.3313E-03

 HEAD WILL BE SAVED ON UNIT   51 AT END OF TIME STEP   35, STRESS PERIOD    3

 DRAWDOWN WILL BE SAVED ON UNIT   52 AT END OF TIME STEP   35, STRESS PERIOD    3
1
  VOLUMETRIC BUDGET FOR ENTIRE MODEL AT END OF TIME STEP   35, STRESS PERIOD   3
  ------------------------------------------------------------------------------

     CUMULATIVE VOLUMES      L**3       RATES FOR THIS TIME STEP      L**3/T
     ------------------                 ------------------------

           IN:                                      IN:
           ---                                      ---
             STORAGE =       1.0477E-08               STORAGE =           0.0000
       CONSTANT HEAD =           0.0000         CONSTANT HEAD =           0.0000
               WELLS =           0.0000                 WELLS =           0.0000
     HEAD DEP BOUNDS =       90618.4453       HEAD DEP BOUNDS =         666.3123

            TOTAL IN =       90618.4453              TOTAL IN =         666.3123

          OUT:                                     OUT:
          ----                                     ----
             STORAGE =       5.2387E-08               STORAGE =           0.0000
       CONSTANT HEAD =           0.0000         CONSTANT HEAD =           0.0000
               WELLS =           0.0000                 WELLS =           0.0000
     HEAD DEP BOUNDS =       90611.1562       HEAD DEP BOUNDS =         666.2595

           TOTAL OUT =       90611.1562             TOTAL OUT =         666.2595

            IN - OUT =           7.2891              IN - OUT =       5.2795E-02

 PERCENT DISCREPANCY =           0.01     PERCENT DISCREPANCY =           0.01






         TIME SUMMARY AT END OF TIME STEP   35 IN STRESS PERIOD    3
                    SECONDS     MINUTES      HOURS       DAYS        YEARS
                    -----------------------------------------------------------
   TIME STEP LENGTH  86400.      1440.0      24.000      1.0000     2.73785E-03
 STRESS PERIOD TIME 3.02400E+06  50400.      840.00      35.000     9.58248E-02
         TOTAL TIME 1.17504E+07 1.95840E+05  3264.0      136.00     0.37235    
1
 
 SOLVING FOR HEAD 

 OUTPUT CONTROL FOR STRESS PERIOD    3   TIME STEP   36
    SAVE HEAD FOR ALL LAYERS
    SAVE DRAWDOWN FOR ALL LAYERS
    SAVE BUDGET
    PRINT HEAD FOR ALL LAYERS
    PRINT BUDGET
 UBDSV1 SAVING "         STORAGE" ON UNIT  53 AT TIME STEP 36, STRESS PERIOD   3
 UBDSV2 SAVING "   CONSTANT HEAD" ON UNIT  53 AT TIME STEP 36, STRESS PERIOD   3
 UBDSV1 SAVING "FLOW RIGHT FACE " ON UNIT  53 AT TIME STEP 36, STRESS PERIOD   3
 UBDSV1 SAVING "FLOW FRONT FACE " ON UNIT  53 AT TIME STEP 36, STRESS PERIOD   3
 UBDSV1 SAVING "FLOW LOWER FACE " ON UNIT  53 AT TIME STEP 36, STRESS PERIOD   3
1
              HEAD IN LAYER   1 AT END OF TIME STEP  36 IN STRESS PERIOD    3
  ---------------------------------------------------------------------------

            1           2           3           4           5           6           7           8           9          10
 ........................................................................................................................
   1    9.997       8.887       7.776       6.666       5.555       4.445       3.335       2.224       1.114      3.3313E-03
   2    9.997       8.887       7.776       6.666       5.555       4.445       3.335       2.224       1.114      3.3313E-03
   3    9.997       8.887       7.776       6.666       5.555       4.445       3.335       2.224       1.114      3.3313E-03
   4    9.997       8.887       7.776       6.666       5.555       4.445       3.335       2.224       1.114      3.3313E-03
   5    9.997       8.887       7.776       6.666       5.555       4.445       3.335       2.224       1.114      3.3313E-03
   6    9.997       8.887       7.776       6.666       5.555       4.445       3.335       2.224       1.114      3.3313E-03
   7    9.997       8.887       7.776       6.666       5.555       4.445       3.335       2.224       1.114      3.3313E-03
   8    9.997       8.887       7.776       6.666       5.555       4.445       3.335       2.224       1.114      3.3313E-03
   9    9.997       8.887       7.776       6.666       5.555       4.445       3.335       2.224       1.114      3.3313E-03
  10    9.997       8.887       7.776       6.666       5.555       4.445       3.335       2.224       1.114      3.3313E-03
1
              HEAD IN LAYER   2 AT END OF TIME STEP  36 IN STRESS PERIOD    3
  ---------------------------------------------------------------------------

            1           2           3           4           5           6           7           8           9          10
 ........................................................................................................................
   1    9.997       8.887       7.776       6.666       5.555       4.445       3.335       2.224       1.114      3.3313E-03
   2    9.997       8.887       7.776       6.666       5.555       4.445       3.335       2.224       1.114      3.3313E-03
   3    9.997       8.887       7.776       6.666       5.555       4.445       3.335       2.224       1.114      3.3313E-03
   4    9.997       8.887       7.776       6.666       5.555       4.445       3.335       2.224       1.114      3.3313E-03
   5    9.997       8.887       7.776       6.666       5.555       4.445       3.335       2.224       1.114      3.3313E-03
   6    9.997       8.887       7.776       6.666       5.555       4.445       3.335       2.224       1.114      3.3313E-03
   7    9.997       8.887       7.776       6.666       5.555       4.445       3.335       2.224       1.114      3.3313E-03
   8    9.997       8.887       7.776       6.666       5.555       4.445       3.335       2.224       1.114      3.3313E-03
   9    9.997       8.887       7.776       6.666       5.555       4.445       3.335       2.224       1.114      3.3313E-03
  10    9.997       8.887       7.776       6.666       5.555       4.445       3.335       2.224       1.114      3.3313E-03
1
              HEAD IN LAYER   3 AT END OF TIME STEP  36 IN STRESS PERIOD    3
  ---------------------------------------------------------------------------

            1           2           3           4           5           6           7           8           9          10
 ........................................................................................................................
   1    9.997       8.887       7.776       6.666       5.555       4.445       3.335       2.224       1.114      3.3313E-03
   2    9.997       8.887       7.776       6.666       5.555       4.445       3.335       2.224       1.114      3.3313E-03
   3    9.997       8.887       7.776       6.666       5.555       4.445       3.335       2.224       1.114      3.3313E-03
   4    9.997       8.887       7.776       6.666       5.555       4.445       3.335       2.224       1.114      3.3313E-03
   5    9.997       8.887       7.776       6.666       5.555       4.445       3.335       2.224       1.114      3.3313E-03
   6    9.997       8.887       7.776       6.666       5.555       4.445       3.335       2.224       1.114      3.3313E-03
   7    9.997       8.887       7.776       6.666       5.555       4.445       3.335       2.224       1.114      3.3313E-03
   8    9.997       8.887       7.776       6.666       5.555       4.445       3.335       2.224       1.114      3.3313E-03
   9    9.997       8.887       7.776       6.666       5.555       4.445       3.335       2.224       1.114      3.3313E-03
  10    9.997       8.887       7.776       6.666       5.555       4.445       3.335       2.224       1.114      3.3313E-03
1
              HEAD IN LAYER   4 AT END OF TIME STEP  36 IN STRESS PERIOD    3
  ---------------------------------------------------------------------------

            1           2           3           4           5           6           7           8           9          10
 ........................................................................................................................
   1    9.997       8.887       7.776       6.666       5.555       4.445       3.335       2.224       1.114      3.3313E-03
   2    9.997       8.887       7.776       6.666       5.555       4.445       3.335       2.224       1.114      3.3313E-03
   3    9.997       8.887       7.776       6.666       5.555       4.445       3.335       2.224       1.114      3.3313E-03
   4    9.997       8.887       7.776       6.666       5.555       4.445       3.335       2.224       1.114      3.3313E-03
   5    9.997       8.887       7.776       6.666       5.555       4.445       3.335       2.224       1.114      3.3313E-03
   6    9.997       8.887       7.776       6.666       5.555       4.445       3.335       2.224       1.114      3.3313E-03
   7    9.997       8.887       7.776       6.666       5.555       4.445       3.335       2.224       1.114      3.3313E-03
   8    9.997       8.887       7.776       6.666       5.555       4.445       3.335       2.224       1.114      3.3313E-03
   9    9.997       8.887       7.776       6.666       5.555       4.445       3.335       2.224       1.114      3.3313E-03
  10    9.997       8.887       7.776       6.666       5.555       4.445       3.335       2.224       1.114      3.3313E-03

 HEAD WILL BE SAVED ON UNIT   51 AT END OF TIME STEP   36, STRESS PERIOD    3

 DRAWDOWN WILL BE SAVED ON UNIT   52 AT END OF TIME STEP   36, STRESS PERIOD    3
1
  VOLUMETRIC BUDGET FOR ENTIRE MODEL AT END OF TIME STEP   36, STRESS PERIOD   3
  ------------------------------------------------------------------------------

     CUMULATIVE VOLUMES      L**3       RATES FOR THIS TIME STEP      L**3/T
     ------------------                 ------------------------

           IN:                                      IN:
           ---                                      ---
             STORAGE =       1.0477E-08               STORAGE =           0.0000
       CONSTANT HEAD =           0.0000         CONSTANT HEAD =           0.0000
               WELLS =           0.0000                 WELLS =           0.0000
     HEAD DEP BOUNDS =       91284.7578       HEAD DEP BOUNDS =         666.3123

            TOTAL IN =       91284.7578              TOTAL IN =         666.3123

          OUT:                                     OUT:
          ----                                     ----
             STORAGE =       5.2387E-08               STORAGE =           0.0000
       CONSTANT HEAD =           0.0000         CONSTANT HEAD =           0.0000
               WELLS =           0.0000                 WELLS =           0.0000
     HEAD DEP BOUNDS =       91277.4141       HEAD DEP BOUNDS =         666.2595

           TOTAL OUT =       91277.4141             TOTAL OUT =         666.2595

            IN - OUT =           7.3438              IN - OUT =       5.2795E-02

 PERCENT DISCREPANCY =           0.01     PERCENT DISCREPANCY =           0.01






         TIME SUMMARY AT END OF TIME STEP   36 IN STRESS PERIOD    3
                    SECONDS     MINUTES      HOURS       DAYS        YEARS
                    -----------------------------------------------------------
   TIME STEP LENGTH  86400.      1440.0      24.000      1.0000     2.73785E-03
 STRESS PERIOD TIME 3.11040E+06  51840.      864.00      36.000     9.85626E-02
         TOTAL TIME 1.18368E+07 1.97280E+05  3288.0      137.00     0.37509    
1
 
 SOLVING FOR HEAD 

 OUTPUT CONTROL FOR STRESS PERIOD    3   TIME STEP   37
    SAVE HEAD FOR ALL LAYERS
    SAVE DRAWDOWN FOR ALL LAYERS
    SAVE BUDGET
    PRINT HEAD FOR ALL LAYERS
    PRINT BUDGET
 UBDSV1 SAVING "         STORAGE" ON UNIT  53 AT TIME STEP 37, STRESS PERIOD   3
 UBDSV2 SAVING "   CONSTANT HEAD" ON UNIT  53 AT TIME STEP 37, STRESS PERIOD   3
 UBDSV1 SAVING "FLOW RIGHT FACE " ON UNIT  53 AT TIME STEP 37, STRESS PERIOD   3
 UBDSV1 SAVING "FLOW FRONT FACE " ON UNIT  53 AT TIME STEP 37, STRESS PERIOD   3
 UBDSV1 SAVING "FLOW LOWER FACE " ON UNIT  53 AT TIME STEP 37, STRESS PERIOD   3
1
              HEAD IN LAYER   1 AT END OF TIME STEP  37 IN STRESS PERIOD    3
  ---------------------------------------------------------------------------

            1           2           3           4           5           6           7           8           9          10
 ........................................................................................................................
   1    9.997       8.887       7.776       6.666       5.555       4.445       3.335       2.224       1.114      3.3313E-03
   2    9.997       8.887       7.776       6.666       5.555       4.445       3.335       2.224       1.114      3.3313E-03
   3    9.997       8.887       7.776       6.666       5.555       4.445       3.335       2.224       1.114      3.3313E-03
   4    9.997       8.887       7.776       6.666       5.555       4.445       3.335       2.224       1.114      3.3313E-03
   5    9.997       8.887       7.776       6.666       5.555       4.445       3.335       2.224       1.114      3.3313E-03
   6    9.997       8.887       7.776       6.666       5.555       4.445       3.335       2.224       1.114      3.3313E-03
   7    9.997       8.887       7.776       6.666       5.555       4.445       3.335       2.224       1.114      3.3313E-03
   8    9.997       8.887       7.776       6.666       5.555       4.445       3.335       2.224       1.114      3.3313E-03
   9    9.997       8.887       7.776       6.666       5.555       4.445       3.335       2.224       1.114      3.3313E-03
  10    9.997       8.887       7.776       6.666       5.555       4.445       3.335       2.224       1.114      3.3313E-03
1
              HEAD IN LAYER   2 AT END OF TIME STEP  37 IN STRESS PERIOD    3
  ---------------------------------------------------------------------------

            1           2           3           4           5           6           7           8           9          10
 ........................................................................................................................
   1    9.997       8.887       7.776       6.666       5.555       4.445       3.335       2.224       1.114      3.3313E-03
   2    9.997       8.887       7.776       6.666       5.555       4.445       3.335       2.224       1.114      3.3313E-03
   3    9.997       8.887       7.776       6.666       5.555       4.445       3.335       2.224       1.114      3.3313E-03
   4    9.997       8.887       7.776       6.666       5.555       4.445       3.335       2.224       1.114      3.3313E-03
   5    9.997       8.887       7.776       6.666       5.555       4.445       3.335       2.224       1.114      3.3313E-03
   6    9.997       8.887       7.776       6.666       5.555       4.445       3.335       2.224       1.114      3.3313E-03
   7    9.997       8.887       7.776       6.666       5.555       4.445       3.335       2.224       1.114      3.3313E-03
   8    9.997       8.887       7.776       6.666       5.555       4.445       3.335       2.224       1.114      3.3313E-03
   9    9.997       8.887       7.776       6.666       5.555       4.445       3.335       2.224       1.114      3.3313E-03
  10    9.997       8.887       7.776       6.666       5.555       4.445       3.335       2.224       1.114      3.3313E-03
1
              HEAD IN LAYER   3 AT END OF TIME STEP  37 IN STRESS PERIOD    3
  ---------------------------------------------------------------------------

            1           2           3           4           5           6           7           8           9          10
 ........................................................................................................................
   1    9.997       8.887       7.776       6.666       5.555       4.445       3.335       2.224       1.114      3.3313E-03
   2    9.997       8.887       7.776       6.666       5.555       4.445       3.335       2.224       1.114      3.3313E-03
   3    9.997       8.887       7.776       6.666       5.555       4.445       3.335       2.224       1.114      3.3313E-03
   4    9.997       8.887       7.776       6.666       5.555       4.445       3.335       2.224       1.114      3.3313E-03
   5    9.997       8.887       7.776       6.666       5.555       4.445       3.335       2.224       1.114      3.3313E-03
   6    9.997       8.887       7.776       6.666       5.555       4.445       3.335       2.224       1.114      3.3313E-03
   7    9.997       8.887       7.776       6.666       5.555       4.445       3.335       2.224       1.114      3.3313E-03
   8    9.997       8.887       7.776       6.666       5.555       4.445       3.335       2.224       1.114      3.3313E-03
   9    9.997       8.887       7.776       6.666       5.555       4.445       3.335       2.224       1.114      3.3313E-03
  10    9.997       8.887       7.776       6.666       5.555       4.445       3.335       2.224       1.114      3.3313E-03
1
              HEAD IN LAYER   4 AT END OF TIME STEP  37 IN STRESS PERIOD    3
  ---------------------------------------------------------------------------

            1           2           3           4           5           6           7           8           9          10
 ........................................................................................................................
   1    9.997       8.887       7.776       6.666       5.555       4.445       3.335       2.224       1.114      3.3313E-03
   2    9.997       8.887       7.776       6.666       5.555       4.445       3.335       2.224       1.114      3.3313E-03
   3    9.997       8.887       7.776       6.666       5.555       4.445       3.335       2.224       1.114      3.3313E-03
   4    9.997       8.887       7.776       6.666       5.555       4.445       3.335       2.224       1.114      3.3313E-03
   5    9.997       8.887       7.776       6.666       5.555       4.445       3.335       2.224       1.114      3.3313E-03
   6    9.997       8.887       7.776       6.666       5.555       4.445       3.335       2.224       1.114      3.3313E-03
   7    9.997       8.887       7.776       6.666       5.555       4.445       3.335       2.224       1.114      3.3313E-03
   8    9.997       8.887       7.776       6.666       5.555       4.445       3.335       2.224       1.114      3.3313E-03
   9    9.997       8.887       7.776       6.666       5.555       4.445       3.335       2.224       1.114      3.3313E-03
  10    9.997       8.887       7.776       6.666       5.555       4.445       3.335       2.224       1.114      3.3313E-03

 HEAD WILL BE SAVED ON UNIT   51 AT END OF TIME STEP   37, STRESS PERIOD    3

 DRAWDOWN WILL BE SAVED ON UNIT   52 AT END OF TIME STEP   37, STRESS PERIOD    3
1
  VOLUMETRIC BUDGET FOR ENTIRE MODEL AT END OF TIME STEP   37, STRESS PERIOD   3
  ------------------------------------------------------------------------------

     CUMULATIVE VOLUMES      L**3       RATES FOR THIS TIME STEP      L**3/T
     ------------------                 ------------------------

           IN:                                      IN:
           ---                                      ---
             STORAGE =       1.0477E-08               STORAGE =           0.0000
       CONSTANT HEAD =           0.0000         CONSTANT HEAD =           0.0000
               WELLS =           0.0000                 WELLS =           0.0000
     HEAD DEP BOUNDS =       91951.0703       HEAD DEP BOUNDS =         666.3123

            TOTAL IN =       91951.0703              TOTAL IN =         666.3123

          OUT:                                     OUT:
          ----                                     ----
             STORAGE =       5.2387E-08               STORAGE =           0.0000
       CONSTANT HEAD =           0.0000         CONSTANT HEAD =           0.0000
               WELLS =           0.0000                 WELLS =           0.0000
     HEAD DEP BOUNDS =       91943.6719       HEAD DEP BOUNDS =         666.2595

           TOTAL OUT =       91943.6719             TOTAL OUT =         666.2595

            IN - OUT =           7.3984              IN - OUT =       5.2795E-02

 PERCENT DISCREPANCY =           0.01     PERCENT DISCREPANCY =           0.01






         TIME SUMMARY AT END OF TIME STEP   37 IN STRESS PERIOD    3
                    SECONDS     MINUTES      HOURS       DAYS        YEARS
                    -----------------------------------------------------------
   TIME STEP LENGTH  86400.      1440.0      24.000      1.0000     2.73785E-03
 STRESS PERIOD TIME 3.19680E+06  53280.      888.00      37.000     0.10130    
         TOTAL TIME 1.19232E+07 1.98720E+05  3312.0      138.00     0.37782    
1
 
 SOLVING FOR HEAD 

 OUTPUT CONTROL FOR STRESS PERIOD    3   TIME STEP   38
    SAVE HEAD FOR ALL LAYERS
    SAVE DRAWDOWN FOR ALL LAYERS
    SAVE BUDGET
    PRINT HEAD FOR ALL LAYERS
    PRINT BUDGET
 UBDSV1 SAVING "         STORAGE" ON UNIT  53 AT TIME STEP 38, STRESS PERIOD   3
 UBDSV2 SAVING "   CONSTANT HEAD" ON UNIT  53 AT TIME STEP 38, STRESS PERIOD   3
 UBDSV1 SAVING "FLOW RIGHT FACE " ON UNIT  53 AT TIME STEP 38, STRESS PERIOD   3
 UBDSV1 SAVING "FLOW FRONT FACE " ON UNIT  53 AT TIME STEP 38, STRESS PERIOD   3
 UBDSV1 SAVING "FLOW LOWER FACE " ON UNIT  53 AT TIME STEP 38, STRESS PERIOD   3
1
              HEAD IN LAYER   1 AT END OF TIME STEP  38 IN STRESS PERIOD    3
  ---------------------------------------------------------------------------

            1           2           3           4           5           6           7           8           9          10
 ........................................................................................................................
   1    9.997       8.887       7.776       6.666       5.555       4.445       3.335       2.224       1.114      3.3313E-03
   2    9.997       8.887       7.776       6.666       5.555       4.445       3.335       2.224       1.114      3.3313E-03
   3    9.997       8.887       7.776       6.666       5.555       4.445       3.335       2.224       1.114      3.3313E-03
   4    9.997       8.887       7.776       6.666       5.555       4.445       3.335       2.224       1.114      3.3313E-03
   5    9.997       8.887       7.776       6.666       5.555       4.445       3.335       2.224       1.114      3.3313E-03
   6    9.997       8.887       7.776       6.666       5.555       4.445       3.335       2.224       1.114      3.3313E-03
   7    9.997       8.887       7.776       6.666       5.555       4.445       3.335       2.224       1.114      3.3313E-03
   8    9.997       8.887       7.776       6.666       5.555       4.445       3.335       2.224       1.114      3.3313E-03
   9    9.997       8.887       7.776       6.666       5.555       4.445       3.335       2.224       1.114      3.3313E-03
  10    9.997       8.887       7.776       6.666       5.555       4.445       3.335       2.224       1.114      3.3313E-03
1
              HEAD IN LAYER   2 AT END OF TIME STEP  38 IN STRESS PERIOD    3
  ---------------------------------------------------------------------------

            1           2           3           4           5           6           7           8           9          10
 ........................................................................................................................
   1    9.997       8.887       7.776       6.666       5.555       4.445       3.335       2.224       1.114      3.3313E-03
   2    9.997       8.887       7.776       6.666       5.555       4.445       3.335       2.224       1.114      3.3313E-03
   3    9.997       8.887       7.776       6.666       5.555       4.445       3.335       2.224       1.114      3.3313E-03
   4    9.997       8.887       7.776       6.666       5.555       4.445       3.335       2.224       1.114      3.3313E-03
   5    9.997       8.887       7.776       6.666       5.555       4.445       3.335       2.224       1.114      3.3313E-03
   6    9.997       8.887       7.776       6.666       5.555       4.445       3.335       2.224       1.114      3.3313E-03
   7    9.997       8.887       7.776       6.666       5.555       4.445       3.335       2.224       1.114      3.3313E-03
   8    9.997       8.887       7.776       6.666       5.555       4.445       3.335       2.224       1.114      3.3313E-03
   9    9.997       8.887       7.776       6.666       5.555       4.445       3.335       2.224       1.114      3.3313E-03
  10    9.997       8.887       7.776       6.666       5.555       4.445       3.335       2.224       1.114      3.3313E-03
1
              HEAD IN LAYER   3 AT END OF TIME STEP  38 IN STRESS PERIOD    3
  ---------------------------------------------------------------------------

            1           2           3           4           5           6           7           8           9          10
 ........................................................................................................................
   1    9.997       8.887       7.776       6.666       5.555       4.445       3.335       2.224       1.114      3.3313E-03
   2    9.997       8.887       7.776       6.666       5.555       4.445       3.335       2.224       1.114      3.3313E-03
   3    9.997       8.887       7.776       6.666       5.555       4.445       3.335       2.224       1.114      3.3313E-03
   4    9.997       8.887       7.776       6.666       5.555       4.445       3.335       2.224       1.114      3.3313E-03
   5    9.997       8.887       7.776       6.666       5.555       4.445       3.335       2.224       1.114      3.3313E-03
   6    9.997       8.887       7.776       6.666       5.555       4.445       3.335       2.224       1.114      3.3313E-03
   7    9.997       8.887       7.776       6.666       5.555       4.445       3.335       2.224       1.114      3.3313E-03
   8    9.997       8.887       7.776       6.666       5.555       4.445       3.335       2.224       1.114      3.3313E-03
   9    9.997       8.887       7.776       6.666       5.555       4.445       3.335       2.224       1.114      3.3313E-03
  10    9.997       8.887       7.776       6.666       5.555       4.445       3.335       2.224       1.114      3.3313E-03
1
              HEAD IN LAYER   4 AT END OF TIME STEP  38 IN STRESS PERIOD    3
  ---------------------------------------------------------------------------

            1           2           3           4           5           6           7           8           9          10
 ........................................................................................................................
   1    9.997       8.887       7.776       6.666       5.555       4.445       3.335       2.224       1.114      3.3313E-03
   2    9.997       8.887       7.776       6.666       5.555       4.445       3.335       2.224       1.114      3.3313E-03
   3    9.997       8.887       7.776       6.666       5.555       4.445       3.335       2.224       1.114      3.3313E-03
   4    9.997       8.887       7.776       6.666       5.555       4.445       3.335       2.224       1.114      3.3313E-03
   5    9.997       8.887       7.776       6.666       5.555       4.445       3.335       2.224       1.114      3.3313E-03
   6    9.997       8.887       7.776       6.666       5.555       4.445       3.335       2.224       1.114      3.3313E-03
   7    9.997       8.887       7.776       6.666       5.555       4.445       3.335       2.224       1.114      3.3313E-03
   8    9.997       8.887       7.776       6.666       5.555       4.445       3.335       2.224       1.114      3.3313E-03
   9    9.997       8.887       7.776       6.666       5.555       4.445       3.335       2.224       1.114      3.3313E-03
  10    9.997       8.887       7.776       6.666       5.555       4.445       3.335       2.224       1.114      3.3313E-03

 HEAD WILL BE SAVED ON UNIT   51 AT END OF TIME STEP   38, STRESS PERIOD    3

 DRAWDOWN WILL BE SAVED ON UNIT   52 AT END OF TIME STEP   38, STRESS PERIOD    3
1
  VOLUMETRIC BUDGET FOR ENTIRE MODEL AT END OF TIME STEP   38, STRESS PERIOD   3
  ------------------------------------------------------------------------------

     CUMULATIVE VOLUMES      L**3       RATES FOR THIS TIME STEP      L**3/T
     ------------------                 ------------------------

           IN:                                      IN:
           ---                                      ---
             STORAGE =       1.0477E-08               STORAGE =           0.0000
       CONSTANT HEAD =           0.0000         CONSTANT HEAD =           0.0000
               WELLS =           0.0000                 WELLS =           0.0000
     HEAD DEP BOUNDS =       92617.3828       HEAD DEP BOUNDS =         666.3123

            TOTAL IN =       92617.3828              TOTAL IN =         666.3123

          OUT:                                     OUT:
          ----                                     ----
             STORAGE =       5.2387E-08               STORAGE =           0.0000
       CONSTANT HEAD =           0.0000         CONSTANT HEAD =           0.0000
               WELLS =           0.0000                 WELLS =           0.0000
     HEAD DEP BOUNDS =       92609.9297       HEAD DEP BOUNDS =         666.2595

           TOTAL OUT =       92609.9297             TOTAL OUT =         666.2595

            IN - OUT =           7.4531              IN - OUT =       5.2795E-02

 PERCENT DISCREPANCY =           0.01     PERCENT DISCREPANCY =           0.01






         TIME SUMMARY AT END OF TIME STEP   38 IN STRESS PERIOD    3
                    SECONDS     MINUTES      HOURS       DAYS        YEARS
                    -----------------------------------------------------------
   TIME STEP LENGTH  86400.      1440.0      24.000      1.0000     2.73785E-03
 STRESS PERIOD TIME 3.28320E+06  54720.      912.00      38.000     0.10404    
         TOTAL TIME 1.20096E+07 2.00160E+05  3336.0      139.00     0.38056    
1
 
 SOLVING FOR HEAD 

 OUTPUT CONTROL FOR STRESS PERIOD    3   TIME STEP   39
    SAVE HEAD FOR ALL LAYERS
    SAVE DRAWDOWN FOR ALL LAYERS
    SAVE BUDGET
    PRINT HEAD FOR ALL LAYERS
    PRINT BUDGET
 UBDSV1 SAVING "         STORAGE" ON UNIT  53 AT TIME STEP 39, STRESS PERIOD   3
 UBDSV2 SAVING "   CONSTANT HEAD" ON UNIT  53 AT TIME STEP 39, STRESS PERIOD   3
 UBDSV1 SAVING "FLOW RIGHT FACE " ON UNIT  53 AT TIME STEP 39, STRESS PERIOD   3
 UBDSV1 SAVING "FLOW FRONT FACE " ON UNIT  53 AT TIME STEP 39, STRESS PERIOD   3
 UBDSV1 SAVING "FLOW LOWER FACE " ON UNIT  53 AT TIME STEP 39, STRESS PERIOD   3
1
              HEAD IN LAYER   1 AT END OF TIME STEP  39 IN STRESS PERIOD    3
  ---------------------------------------------------------------------------

            1           2           3           4           5           6           7           8           9          10
 ........................................................................................................................
   1    9.997       8.887       7.776       6.666       5.555       4.445       3.335       2.224       1.114      3.3313E-03
   2    9.997       8.887       7.776       6.666       5.555       4.445       3.335       2.224       1.114      3.3313E-03
   3    9.997       8.887       7.776       6.666       5.555       4.445       3.335       2.224       1.114      3.3313E-03
   4    9.997       8.887       7.776       6.666       5.555       4.445       3.335       2.224       1.114      3.3313E-03
   5    9.997       8.887       7.776       6.666       5.555       4.445       3.335       2.224       1.114      3.3313E-03
   6    9.997       8.887       7.776       6.666       5.555       4.445       3.335       2.224       1.114      3.3313E-03
   7    9.997       8.887       7.776       6.666       5.555       4.445       3.335       2.224       1.114      3.3313E-03
   8    9.997       8.887       7.776       6.666       5.555       4.445       3.335       2.224       1.114      3.3313E-03
   9    9.997       8.887       7.776       6.666       5.555       4.445       3.335       2.224       1.114      3.3313E-03
  10    9.997       8.887       7.776       6.666       5.555       4.445       3.335       2.224       1.114      3.3313E-03
1
              HEAD IN LAYER   2 AT END OF TIME STEP  39 IN STRESS PERIOD    3
  ---------------------------------------------------------------------------

            1           2           3           4           5           6           7           8           9          10
 ........................................................................................................................
   1    9.997       8.887       7.776       6.666       5.555       4.445       3.335       2.224       1.114      3.3313E-03
   2    9.997       8.887       7.776       6.666       5.555       4.445       3.335       2.224       1.114      3.3313E-03
   3    9.997       8.887       7.776       6.666       5.555       4.445       3.335       2.224       1.114      3.3313E-03
   4    9.997       8.887       7.776       6.666       5.555       4.445       3.335       2.224       1.114      3.3313E-03
   5    9.997       8.887       7.776       6.666       5.555       4.445       3.335       2.224       1.114      3.3313E-03
   6    9.997       8.887       7.776       6.666       5.555       4.445       3.335       2.224       1.114      3.3313E-03
   7    9.997       8.887       7.776       6.666       5.555       4.445       3.335       2.224       1.114      3.3313E-03
   8    9.997       8.887       7.776       6.666       5.555       4.445       3.335       2.224       1.114      3.3313E-03
   9    9.997       8.887       7.776       6.666       5.555       4.445       3.335       2.224       1.114      3.3313E-03
  10    9.997       8.887       7.776       6.666       5.555       4.445       3.335       2.224       1.114      3.3313E-03
1
              HEAD IN LAYER   3 AT END OF TIME STEP  39 IN STRESS PERIOD    3
  ---------------------------------------------------------------------------

            1           2           3           4           5           6           7           8           9          10
 ........................................................................................................................
   1    9.997       8.887       7.776       6.666       5.555       4.445       3.335       2.224       1.114      3.3313E-03
   2    9.997       8.887       7.776       6.666       5.555       4.445       3.335       2.224       1.114      3.3313E-03
   3    9.997       8.887       7.776       6.666       5.555       4.445       3.335       2.224       1.114      3.3313E-03
   4    9.997       8.887       7.776       6.666       5.555       4.445       3.335       2.224       1.114      3.3313E-03
   5    9.997       8.887       7.776       6.666       5.555       4.445       3.335       2.224       1.114      3.3313E-03
   6    9.997       8.887       7.776       6.666       5.555       4.445       3.335       2.224       1.114      3.3313E-03
   7    9.997       8.887       7.776       6.666       5.555       4.445       3.335       2.224       1.114      3.3313E-03
   8    9.997       8.887       7.776       6.666       5.555       4.445       3.335       2.224       1.114      3.3313E-03
   9    9.997       8.887       7.776       6.666       5.555       4.445       3.335       2.224       1.114      3.3313E-03
  10    9.997       8.887       7.776       6.666       5.555       4.445       3.335       2.224       1.114      3.3313E-03
1
              HEAD IN LAYER   4 AT END OF TIME STEP  39 IN STRESS PERIOD    3
  ---------------------------------------------------------------------------

            1           2           3           4           5           6           7           8           9          10
 ........................................................................................................................
   1    9.997       8.887       7.776       6.666       5.555       4.445       3.335       2.224       1.114      3.3313E-03
   2    9.997       8.887       7.776       6.666       5.555       4.445       3.335       2.224       1.114      3.3313E-03
   3    9.997       8.887       7.776       6.666       5.555       4.445       3.335       2.224       1.114      3.3313E-03
   4    9.997       8.887       7.776       6.666       5.555       4.445       3.335       2.224       1.114      3.3313E-03
   5    9.997       8.887       7.776       6.666       5.555       4.445       3.335       2.224       1.114      3.3313E-03
   6    9.997       8.887       7.776       6.666       5.555       4.445       3.335       2.224       1.114      3.3313E-03
   7    9.997       8.887       7.776       6.666       5.555       4.445       3.335       2.224       1.114      3.3313E-03
   8    9.997       8.887       7.776       6.666       5.555       4.445       3.335       2.224       1.114      3.3313E-03
   9    9.997       8.887       7.776       6.666       5.555       4.445       3.335       2.224       1.114      3.3313E-03
  10    9.997       8.887       7.776       6.666       5.555       4.445       3.335       2.224       1.114      3.3313E-03

 HEAD WILL BE SAVED ON UNIT   51 AT END OF TIME STEP   39, STRESS PERIOD    3

 DRAWDOWN WILL BE SAVED ON UNIT   52 AT END OF TIME STEP   39, STRESS PERIOD    3
1
  VOLUMETRIC BUDGET FOR ENTIRE MODEL AT END OF TIME STEP   39, STRESS PERIOD   3
  ------------------------------------------------------------------------------

     CUMULATIVE VOLUMES      L**3       RATES FOR THIS TIME STEP      L**3/T
     ------------------                 ------------------------

           IN:                                      IN:
           ---                                      ---
             STORAGE =       1.0477E-08               STORAGE =           0.0000
       CONSTANT HEAD =           0.0000         CONSTANT HEAD =           0.0000
               WELLS =           0.0000                 WELLS =           0.0000
     HEAD DEP BOUNDS =       93283.6953       HEAD DEP BOUNDS =         666.3123

            TOTAL IN =       93283.6953              TOTAL IN =         666.3123

          OUT:                                     OUT:
          ----                                     ----
             STORAGE =       5.2387E-08               STORAGE =           0.0000
       CONSTANT HEAD =           0.0000         CONSTANT HEAD =           0.0000
               WELLS =           0.0000                 WELLS =           0.0000
     HEAD DEP BOUNDS =       93276.1875       HEAD DEP BOUNDS =         666.2595

           TOTAL OUT =       93276.1875             TOTAL OUT =         666.2595

            IN - OUT =           7.5078              IN - OUT =       5.2795E-02

 PERCENT DISCREPANCY =           0.01     PERCENT DISCREPANCY =           0.01






         TIME SUMMARY AT END OF TIME STEP   39 IN STRESS PERIOD    3
                    SECONDS     MINUTES      HOURS       DAYS        YEARS
                    -----------------------------------------------------------
   TIME STEP LENGTH  86400.      1440.0      24.000      1.0000     2.73785E-03
 STRESS PERIOD TIME 3.36960E+06  56160.      936.00      39.000     0.10678    
         TOTAL TIME 1.20960E+07 2.01600E+05  3360.0      140.00     0.38330    
1
 
 SOLVING FOR HEAD 

 OUTPUT CONTROL FOR STRESS PERIOD    3   TIME STEP   40
    SAVE HEAD FOR ALL LAYERS
    SAVE DRAWDOWN FOR ALL LAYERS
    SAVE BUDGET
    PRINT HEAD FOR ALL LAYERS
    PRINT BUDGET
 UBDSV1 SAVING "         STORAGE" ON UNIT  53 AT TIME STEP 40, STRESS PERIOD   3
 UBDSV2 SAVING "   CONSTANT HEAD" ON UNIT  53 AT TIME STEP 40, STRESS PERIOD   3
 UBDSV1 SAVING "FLOW RIGHT FACE " ON UNIT  53 AT TIME STEP 40, STRESS PERIOD   3
 UBDSV1 SAVING "FLOW FRONT FACE " ON UNIT  53 AT TIME STEP 40, STRESS PERIOD   3
 UBDSV1 SAVING "FLOW LOWER FACE " ON UNIT  53 AT TIME STEP 40, STRESS PERIOD   3
1
              HEAD IN LAYER   1 AT END OF TIME STEP  40 IN STRESS PERIOD    3
  ---------------------------------------------------------------------------

            1           2           3           4           5           6           7           8           9          10
 ........................................................................................................................
   1    9.997       8.887       7.776       6.666       5.555       4.445       3.335       2.224       1.114      3.3313E-03
   2    9.997       8.887       7.776       6.666       5.555       4.445       3.335       2.224       1.114      3.3313E-03
   3    9.997       8.887       7.776       6.666       5.555       4.445       3.335       2.224       1.114      3.3313E-03
   4    9.997       8.887       7.776       6.666       5.555       4.445       3.335       2.224       1.114      3.3313E-03
   5    9.997       8.887       7.776       6.666       5.555       4.445       3.335       2.224       1.114      3.3313E-03
   6    9.997       8.887       7.776       6.666       5.555       4.445       3.335       2.224       1.114      3.3313E-03
   7    9.997       8.887       7.776       6.666       5.555       4.445       3.335       2.224       1.114      3.3313E-03
   8    9.997       8.887       7.776       6.666       5.555       4.445       3.335       2.224       1.114      3.3313E-03
   9    9.997       8.887       7.776       6.666       5.555       4.445       3.335       2.224       1.114      3.3313E-03
  10    9.997       8.887       7.776       6.666       5.555       4.445       3.335       2.224       1.114      3.3313E-03
1
              HEAD IN LAYER   2 AT END OF TIME STEP  40 IN STRESS PERIOD    3
  ---------------------------------------------------------------------------

            1           2           3           4           5           6           7           8           9          10
 ........................................................................................................................
   1    9.997       8.887       7.776       6.666       5.555       4.445       3.335       2.224       1.114      3.3313E-03
   2    9.997       8.887       7.776       6.666       5.555       4.445       3.335       2.224       1.114      3.3313E-03
   3    9.997       8.887       7.776       6.666       5.555       4.445       3.335       2.224       1.114      3.3313E-03
   4    9.997       8.887       7.776       6.666       5.555       4.445       3.335       2.224       1.114      3.3313E-03
   5    9.997       8.887       7.776       6.666       5.555       4.445       3.335       2.224       1.114      3.3313E-03
   6    9.997       8.887       7.776       6.666       5.555       4.445       3.335       2.224       1.114      3.3313E-03
   7    9.997       8.887       7.776       6.666       5.555       4.445       3.335       2.224       1.114      3.3313E-03
   8    9.997       8.887       7.776       6.666       5.555       4.445       3.335       2.224       1.114      3.3313E-03
   9    9.997       8.887       7.776       6.666       5.555       4.445       3.335       2.224       1.114      3.3313E-03
  10    9.997       8.887       7.776       6.666       5.555       4.445       3.335       2.224       1.114      3.3313E-03
1
              HEAD IN LAYER   3 AT END OF TIME STEP  40 IN STRESS PERIOD    3
  ---------------------------------------------------------------------------

            1           2           3           4           5           6           7           8           9          10
 ........................................................................................................................
   1    9.997       8.887       7.776       6.666       5.555       4.445       3.335       2.224       1.114      3.3313E-03
   2    9.997       8.887       7.776       6.666       5.555       4.445       3.335       2.224       1.114      3.3313E-03
   3    9.997       8.887       7.776       6.666       5.555       4.445       3.335       2.224       1.114      3.3313E-03
   4    9.997       8.887       7.776       6.666       5.555       4.445       3.335       2.224       1.114      3.3313E-03
   5    9.997       8.887       7.776       6.666       5.555       4.445       3.335       2.224       1.114      3.3313E-03
   6    9.997       8.887       7.776       6.666       5.555       4.445       3.335       2.224       1.114      3.3313E-03
   7    9.997       8.887       7.776       6.666       5.555       4.445       3.335       2.224       1.114      3.3313E-03
   8    9.997       8.887       7.776       6.666       5.555       4.445       3.335       2.224       1.114      3.3313E-03
   9    9.997       8.887       7.776       6.666       5.555       4.445       3.335       2.224       1.114      3.3313E-03
  10    9.997       8.887       7.776       6.666       5.555       4.445       3.335       2.224       1.114      3.3313E-03
1
              HEAD IN LAYER   4 AT END OF TIME STEP  40 IN STRESS PERIOD    3
  ---------------------------------------------------------------------------

            1           2           3           4           5           6           7           8           9          10
 ........................................................................................................................
   1    9.997       8.887       7.776       6.666       5.555       4.445       3.335       2.224       1.114      3.3313E-03
   2    9.997       8.887       7.776       6.666       5.555       4.445       3.335       2.224       1.114      3.3313E-03
   3    9.997       8.887       7.776       6.666       5.555       4.445       3.335       2.224       1.114      3.3313E-03
   4    9.997       8.887       7.776       6.666       5.555       4.445       3.335       2.224       1.114      3.3313E-03
   5    9.997       8.887       7.776       6.666       5.555       4.445       3.335       2.224       1.114      3.3313E-03
   6    9.997       8.887       7.776       6.666       5.555       4.445       3.335       2.224       1.114      3.3313E-03
   7    9.997       8.887       7.776       6.666       5.555       4.445       3.335       2.224       1.114      3.3313E-03
   8    9.997       8.887       7.776       6.666       5.555       4.445       3.335       2.224       1.114      3.3313E-03
   9    9.997       8.887       7.776       6.666       5.555       4.445       3.335       2.224       1.114      3.3313E-03
  10    9.997       8.887       7.776       6.666       5.555       4.445       3.335       2.224       1.114      3.3313E-03

 HEAD WILL BE SAVED ON UNIT   51 AT END OF TIME STEP   40, STRESS PERIOD    3

 DRAWDOWN WILL BE SAVED ON UNIT   52 AT END OF TIME STEP   40, STRESS PERIOD    3
1
  VOLUMETRIC BUDGET FOR ENTIRE MODEL AT END OF TIME STEP   40, STRESS PERIOD   3
  ------------------------------------------------------------------------------

     CUMULATIVE VOLUMES      L**3       RATES FOR THIS TIME STEP      L**3/T
     ------------------                 ------------------------

           IN:                                      IN:
           ---                                      ---
             STORAGE =       1.0477E-08               STORAGE =           0.0000
       CONSTANT HEAD =           0.0000         CONSTANT HEAD =           0.0000
               WELLS =           0.0000                 WELLS =           0.0000
     HEAD DEP BOUNDS =       93950.0078       HEAD DEP BOUNDS =         666.3123

            TOTAL IN =       93950.0078              TOTAL IN =         666.3123

          OUT:                                     OUT:
          ----                                     ----
             STORAGE =       5.2387E-08               STORAGE =           0.0000
       CONSTANT HEAD =           0.0000         CONSTANT HEAD =           0.0000
               WELLS =           0.0000                 WELLS =           0.0000
     HEAD DEP BOUNDS =       93942.4453       HEAD DEP BOUNDS =         666.2595

           TOTAL OUT =       93942.4453             TOTAL OUT =         666.2595

            IN - OUT =           7.5625              IN - OUT =       5.2795E-02

 PERCENT DISCREPANCY =           0.01     PERCENT DISCREPANCY =           0.01






         TIME SUMMARY AT END OF TIME STEP   40 IN STRESS PERIOD    3
                    SECONDS     MINUTES      HOURS       DAYS        YEARS
                    -----------------------------------------------------------
   TIME STEP LENGTH  86400.      1440.0      24.000      1.0000     2.73785E-03
 STRESS PERIOD TIME 3.45600E+06  57600.      960.00      40.000     0.10951    
         TOTAL TIME 1.21824E+07 2.03040E+05  3384.0      141.00     0.38604    
1
 
 SOLVING FOR HEAD 

 OUTPUT CONTROL FOR STRESS PERIOD    3   TIME STEP   41
    SAVE HEAD FOR ALL LAYERS
    SAVE DRAWDOWN FOR ALL LAYERS
    SAVE BUDGET
    PRINT HEAD FOR ALL LAYERS
    PRINT BUDGET
 UBDSV1 SAVING "         STORAGE" ON UNIT  53 AT TIME STEP 41, STRESS PERIOD   3
 UBDSV2 SAVING "   CONSTANT HEAD" ON UNIT  53 AT TIME STEP 41, STRESS PERIOD   3
 UBDSV1 SAVING "FLOW RIGHT FACE " ON UNIT  53 AT TIME STEP 41, STRESS PERIOD   3
 UBDSV1 SAVING "FLOW FRONT FACE " ON UNIT  53 AT TIME STEP 41, STRESS PERIOD   3
 UBDSV1 SAVING "FLOW LOWER FACE " ON UNIT  53 AT TIME STEP 41, STRESS PERIOD   3
1
              HEAD IN LAYER   1 AT END OF TIME STEP  41 IN STRESS PERIOD    3
  ---------------------------------------------------------------------------

            1           2           3           4           5           6           7           8           9          10
 ........................................................................................................................
   1    9.997       8.887       7.776       6.666       5.555       4.445       3.335       2.224       1.114      3.3313E-03
   2    9.997       8.887       7.776       6.666       5.555       4.445       3.335       2.224       1.114      3.3313E-03
   3    9.997       8.887       7.776       6.666       5.555       4.445       3.335       2.224       1.114      3.3313E-03
   4    9.997       8.887       7.776       6.666       5.555       4.445       3.335       2.224       1.114      3.3313E-03
   5    9.997       8.887       7.776       6.666       5.555       4.445       3.335       2.224       1.114      3.3313E-03
   6    9.997       8.887       7.776       6.666       5.555       4.445       3.335       2.224       1.114      3.3313E-03
   7    9.997       8.887       7.776       6.666       5.555       4.445       3.335       2.224       1.114      3.3313E-03
   8    9.997       8.887       7.776       6.666       5.555       4.445       3.335       2.224       1.114      3.3313E-03
   9    9.997       8.887       7.776       6.666       5.555       4.445       3.335       2.224       1.114      3.3313E-03
  10    9.997       8.887       7.776       6.666       5.555       4.445       3.335       2.224       1.114      3.3313E-03
1
              HEAD IN LAYER   2 AT END OF TIME STEP  41 IN STRESS PERIOD    3
  ---------------------------------------------------------------------------

            1           2           3           4           5           6           7           8           9          10
 ........................................................................................................................
   1    9.997       8.887       7.776       6.666       5.555       4.445       3.335       2.224       1.114      3.3313E-03
   2    9.997       8.887       7.776       6.666       5.555       4.445       3.335       2.224       1.114      3.3313E-03
   3    9.997       8.887       7.776       6.666       5.555       4.445       3.335       2.224       1.114      3.3313E-03
   4    9.997       8.887       7.776       6.666       5.555       4.445       3.335       2.224       1.114      3.3313E-03
   5    9.997       8.887       7.776       6.666       5.555       4.445       3.335       2.224       1.114      3.3313E-03
   6    9.997       8.887       7.776       6.666       5.555       4.445       3.335       2.224       1.114      3.3313E-03
   7    9.997       8.887       7.776       6.666       5.555       4.445       3.335       2.224       1.114      3.3313E-03
   8    9.997       8.887       7.776       6.666       5.555       4.445       3.335       2.224       1.114      3.3313E-03
   9    9.997       8.887       7.776       6.666       5.555       4.445       3.335       2.224       1.114      3.3313E-03
  10    9.997       8.887       7.776       6.666       5.555       4.445       3.335       2.224       1.114      3.3313E-03
1
              HEAD IN LAYER   3 AT END OF TIME STEP  41 IN STRESS PERIOD    3
  ---------------------------------------------------------------------------

            1           2           3           4           5           6           7           8           9          10
 ........................................................................................................................
   1    9.997       8.887       7.776       6.666       5.555       4.445       3.335       2.224       1.114      3.3313E-03
   2    9.997       8.887       7.776       6.666       5.555       4.445       3.335       2.224       1.114      3.3313E-03
   3    9.997       8.887       7.776       6.666       5.555       4.445       3.335       2.224       1.114      3.3313E-03
   4    9.997       8.887       7.776       6.666       5.555       4.445       3.335       2.224       1.114      3.3313E-03
   5    9.997       8.887       7.776       6.666       5.555       4.445       3.335       2.224       1.114      3.3313E-03
   6    9.997       8.887       7.776       6.666       5.555       4.445       3.335       2.224       1.114      3.3313E-03
   7    9.997       8.887       7.776       6.666       5.555       4.445       3.335       2.224       1.114      3.3313E-03
   8    9.997       8.887       7.776       6.666       5.555       4.445       3.335       2.224       1.114      3.3313E-03
   9    9.997       8.887       7.776       6.666       5.555       4.445       3.335       2.224       1.114      3.3313E-03
  10    9.997       8.887       7.776       6.666       5.555       4.445       3.335       2.224       1.114      3.3313E-03
1
              HEAD IN LAYER   4 AT END OF TIME STEP  41 IN STRESS PERIOD    3
  ---------------------------------------------------------------------------

            1           2           3           4           5           6           7           8           9          10
 ........................................................................................................................
   1    9.997       8.887       7.776       6.666       5.555       4.445       3.335       2.224       1.114      3.3313E-03
   2    9.997       8.887       7.776       6.666       5.555       4.445       3.335       2.224       1.114      3.3313E-03
   3    9.997       8.887       7.776       6.666       5.555       4.445       3.335       2.224       1.114      3.3313E-03
   4    9.997       8.887       7.776       6.666       5.555       4.445       3.335       2.224       1.114      3.3313E-03
   5    9.997       8.887       7.776       6.666       5.555       4.445       3.335       2.224       1.114      3.3313E-03
   6    9.997       8.887       7.776       6.666       5.555       4.445       3.335       2.224       1.114      3.3313E-03
   7    9.997       8.887       7.776       6.666       5.555       4.445       3.335       2.224       1.114      3.3313E-03
   8    9.997       8.887       7.776       6.666       5.555       4.445       3.335       2.224       1.114      3.3313E-03
   9    9.997       8.887       7.776       6.666       5.555       4.445       3.335       2.224       1.114      3.3313E-03
  10    9.997       8.887       7.776       6.666       5.555       4.445       3.335       2.224       1.114      3.3313E-03

 HEAD WILL BE SAVED ON UNIT   51 AT END OF TIME STEP   41, STRESS PERIOD    3

 DRAWDOWN WILL BE SAVED ON UNIT   52 AT END OF TIME STEP   41, STRESS PERIOD    3
1
  VOLUMETRIC BUDGET FOR ENTIRE MODEL AT END OF TIME STEP   41, STRESS PERIOD   3
  ------------------------------------------------------------------------------

     CUMULATIVE VOLUMES      L**3       RATES FOR THIS TIME STEP      L**3/T
     ------------------                 ------------------------

           IN:                                      IN:
           ---                                      ---
             STORAGE =       1.0477E-08               STORAGE =           0.0000
       CONSTANT HEAD =           0.0000         CONSTANT HEAD =           0.0000
               WELLS =           0.0000                 WELLS =           0.0000
     HEAD DEP BOUNDS =       94616.3203       HEAD DEP BOUNDS =         666.3123

            TOTAL IN =       94616.3203              TOTAL IN =         666.3123

          OUT:                                     OUT:
          ----                                     ----
             STORAGE =       5.2387E-08               STORAGE =           0.0000
       CONSTANT HEAD =           0.0000         CONSTANT HEAD =           0.0000
               WELLS =           0.0000                 WELLS =           0.0000
     HEAD DEP BOUNDS =       94608.7031       HEAD DEP BOUNDS =         666.2595

           TOTAL OUT =       94608.7031             TOTAL OUT =         666.2595

            IN - OUT =           7.6172              IN - OUT =       5.2795E-02

 PERCENT DISCREPANCY =           0.01     PERCENT DISCREPANCY =           0.01






         TIME SUMMARY AT END OF TIME STEP   41 IN STRESS PERIOD    3
                    SECONDS     MINUTES      HOURS       DAYS        YEARS
                    -----------------------------------------------------------
   TIME STEP LENGTH  86400.      1440.0      24.000      1.0000     2.73785E-03
 STRESS PERIOD TIME 3.54240E+06  59040.      984.00      41.000     0.11225    
         TOTAL TIME 1.22688E+07 2.04480E+05  3408.0      142.00     0.38877    
1
 
 SOLVING FOR HEAD 

 OUTPUT CONTROL FOR STRESS PERIOD    3   TIME STEP   42
    SAVE HEAD FOR ALL LAYERS
    SAVE DRAWDOWN FOR ALL LAYERS
    SAVE BUDGET
    PRINT HEAD FOR ALL LAYERS
    PRINT BUDGET
 UBDSV1 SAVING "         STORAGE" ON UNIT  53 AT TIME STEP 42, STRESS PERIOD   3
 UBDSV2 SAVING "   CONSTANT HEAD" ON UNIT  53 AT TIME STEP 42, STRESS PERIOD   3
 UBDSV1 SAVING "FLOW RIGHT FACE " ON UNIT  53 AT TIME STEP 42, STRESS PERIOD   3
 UBDSV1 SAVING "FLOW FRONT FACE " ON UNIT  53 AT TIME STEP 42, STRESS PERIOD   3
 UBDSV1 SAVING "FLOW LOWER FACE " ON UNIT  53 AT TIME STEP 42, STRESS PERIOD   3
1
              HEAD IN LAYER   1 AT END OF TIME STEP  42 IN STRESS PERIOD    3
  ---------------------------------------------------------------------------

            1           2           3           4           5           6           7           8           9          10
 ........................................................................................................................
   1    9.997       8.887       7.776       6.666       5.555       4.445       3.335       2.224       1.114      3.3313E-03
   2    9.997       8.887       7.776       6.666       5.555       4.445       3.335       2.224       1.114      3.3313E-03
   3    9.997       8.887       7.776       6.666       5.555       4.445       3.335       2.224       1.114      3.3313E-03
   4    9.997       8.887       7.776       6.666       5.555       4.445       3.335       2.224       1.114      3.3313E-03
   5    9.997       8.887       7.776       6.666       5.555       4.445       3.335       2.224       1.114      3.3313E-03
   6    9.997       8.887       7.776       6.666       5.555       4.445       3.335       2.224       1.114      3.3313E-03
   7    9.997       8.887       7.776       6.666       5.555       4.445       3.335       2.224       1.114      3.3313E-03
   8    9.997       8.887       7.776       6.666       5.555       4.445       3.335       2.224       1.114      3.3313E-03
   9    9.997       8.887       7.776       6.666       5.555       4.445       3.335       2.224       1.114      3.3313E-03
  10    9.997       8.887       7.776       6.666       5.555       4.445       3.335       2.224       1.114      3.3313E-03
1
              HEAD IN LAYER   2 AT END OF TIME STEP  42 IN STRESS PERIOD    3
  ---------------------------------------------------------------------------

            1           2           3           4           5           6           7           8           9          10
 ........................................................................................................................
   1    9.997       8.887       7.776       6.666       5.555       4.445       3.335       2.224       1.114      3.3313E-03
   2    9.997       8.887       7.776       6.666       5.555       4.445       3.335       2.224       1.114      3.3313E-03
   3    9.997       8.887       7.776       6.666       5.555       4.445       3.335       2.224       1.114      3.3313E-03
   4    9.997       8.887       7.776       6.666       5.555       4.445       3.335       2.224       1.114      3.3313E-03
   5    9.997       8.887       7.776       6.666       5.555       4.445       3.335       2.224       1.114      3.3313E-03
   6    9.997       8.887       7.776       6.666       5.555       4.445       3.335       2.224       1.114      3.3313E-03
   7    9.997       8.887       7.776       6.666       5.555       4.445       3.335       2.224       1.114      3.3313E-03
   8    9.997       8.887       7.776       6.666       5.555       4.445       3.335       2.224       1.114      3.3313E-03
   9    9.997       8.887       7.776       6.666       5.555       4.445       3.335       2.224       1.114      3.3313E-03
  10    9.997       8.887       7.776       6.666       5.555       4.445       3.335       2.224       1.114      3.3313E-03
1
              HEAD IN LAYER   3 AT END OF TIME STEP  42 IN STRESS PERIOD    3
  ---------------------------------------------------------------------------

            1           2           3           4           5           6           7           8           9          10
 ........................................................................................................................
   1    9.997       8.887       7.776       6.666       5.555       4.445       3.335       2.224       1.114      3.3313E-03
   2    9.997       8.887       7.776       6.666       5.555       4.445       3.335       2.224       1.114      3.3313E-03
   3    9.997       8.887       7.776       6.666       5.555       4.445       3.335       2.224       1.114      3.3313E-03
   4    9.997       8.887       7.776       6.666       5.555       4.445       3.335       2.224       1.114      3.3313E-03
   5    9.997       8.887       7.776       6.666       5.555       4.445       3.335       2.224       1.114      3.3313E-03
   6    9.997       8.887       7.776       6.666       5.555       4.445       3.335       2.224       1.114      3.3313E-03
   7    9.997       8.887       7.776       6.666       5.555       4.445       3.335       2.224       1.114      3.3313E-03
   8    9.997       8.887       7.776       6.666       5.555       4.445       3.335       2.224       1.114      3.3313E-03
   9    9.997       8.887       7.776       6.666       5.555       4.445       3.335       2.224       1.114      3.3313E-03
  10    9.997       8.887       7.776       6.666       5.555       4.445       3.335       2.224       1.114      3.3313E-03
1
              HEAD IN LAYER   4 AT END OF TIME STEP  42 IN STRESS PERIOD    3
  ---------------------------------------------------------------------------

            1           2           3           4           5           6           7           8           9          10
 ........................................................................................................................
   1    9.997       8.887       7.776       6.666       5.555       4.445       3.335       2.224       1.114      3.3313E-03
   2    9.997       8.887       7.776       6.666       5.555       4.445       3.335       2.224       1.114      3.3313E-03
   3    9.997       8.887       7.776       6.666       5.555       4.445       3.335       2.224       1.114      3.3313E-03
   4    9.997       8.887       7.776       6.666       5.555       4.445       3.335       2.224       1.114      3.3313E-03
   5    9.997       8.887       7.776       6.666       5.555       4.445       3.335       2.224       1.114      3.3313E-03
   6    9.997       8.887       7.776       6.666       5.555       4.445       3.335       2.224       1.114      3.3313E-03
   7    9.997       8.887       7.776       6.666       5.555       4.445       3.335       2.224       1.114      3.3313E-03
   8    9.997       8.887       7.776       6.666       5.555       4.445       3.335       2.224       1.114      3.3313E-03
   9    9.997       8.887       7.776       6.666       5.555       4.445       3.335       2.224       1.114      3.3313E-03
  10    9.997       8.887       7.776       6.666       5.555       4.445       3.335       2.224       1.114      3.3313E-03

 HEAD WILL BE SAVED ON UNIT   51 AT END OF TIME STEP   42, STRESS PERIOD    3

 DRAWDOWN WILL BE SAVED ON UNIT   52 AT END OF TIME STEP   42, STRESS PERIOD    3
1
  VOLUMETRIC BUDGET FOR ENTIRE MODEL AT END OF TIME STEP   42, STRESS PERIOD   3
  ------------------------------------------------------------------------------

     CUMULATIVE VOLUMES      L**3       RATES FOR THIS TIME STEP      L**3/T
     ------------------                 ------------------------

           IN:                                      IN:
           ---                                      ---
             STORAGE =       1.0477E-08               STORAGE =           0.0000
       CONSTANT HEAD =           0.0000         CONSTANT HEAD =           0.0000
               WELLS =           0.0000                 WELLS =           0.0000
     HEAD DEP BOUNDS =       95282.6328       HEAD DEP BOUNDS =         666.3123

            TOTAL IN =       95282.6328              TOTAL IN =         666.3123

          OUT:                                     OUT:
          ----                                     ----
             STORAGE =       5.2387E-08               STORAGE =           0.0000
       CONSTANT HEAD =           0.0000         CONSTANT HEAD =           0.0000
               WELLS =           0.0000                 WELLS =           0.0000
     HEAD DEP BOUNDS =       95274.9609       HEAD DEP BOUNDS =         666.2595

           TOTAL OUT =       95274.9609             TOTAL OUT =         666.2595

            IN - OUT =           7.6719              IN - OUT =       5.2795E-02

 PERCENT DISCREPANCY =           0.01     PERCENT DISCREPANCY =           0.01






         TIME SUMMARY AT END OF TIME STEP   42 IN STRESS PERIOD    3
                    SECONDS     MINUTES      HOURS       DAYS        YEARS
                    -----------------------------------------------------------
   TIME STEP LENGTH  86400.      1440.0      24.000      1.0000     2.73785E-03
 STRESS PERIOD TIME 3.62880E+06  60480.      1008.0      42.000     0.11499    
         TOTAL TIME 1.23552E+07 2.05920E+05  3432.0      143.00     0.39151    
1
 
 SOLVING FOR HEAD 

 OUTPUT CONTROL FOR STRESS PERIOD    3   TIME STEP   43
    SAVE HEAD FOR ALL LAYERS
    SAVE DRAWDOWN FOR ALL LAYERS
    SAVE BUDGET
    PRINT HEAD FOR ALL LAYERS
    PRINT BUDGET
 UBDSV1 SAVING "         STORAGE" ON UNIT  53 AT TIME STEP 43, STRESS PERIOD   3
 UBDSV2 SAVING "   CONSTANT HEAD" ON UNIT  53 AT TIME STEP 43, STRESS PERIOD   3
 UBDSV1 SAVING "FLOW RIGHT FACE " ON UNIT  53 AT TIME STEP 43, STRESS PERIOD   3
 UBDSV1 SAVING "FLOW FRONT FACE " ON UNIT  53 AT TIME STEP 43, STRESS PERIOD   3
 UBDSV1 SAVING "FLOW LOWER FACE " ON UNIT  53 AT TIME STEP 43, STRESS PERIOD   3
1
              HEAD IN LAYER   1 AT END OF TIME STEP  43 IN STRESS PERIOD    3
  ---------------------------------------------------------------------------

            1           2           3           4           5           6           7           8           9          10
 ........................................................................................................................
   1    9.997       8.887       7.776       6.666       5.555       4.445       3.335       2.224       1.114      3.3313E-03
   2    9.997       8.887       7.776       6.666       5.555       4.445       3.335       2.224       1.114      3.3313E-03
   3    9.997       8.887       7.776       6.666       5.555       4.445       3.335       2.224       1.114      3.3313E-03
   4    9.997       8.887       7.776       6.666       5.555       4.445       3.335       2.224       1.114      3.3313E-03
   5    9.997       8.887       7.776       6.666       5.555       4.445       3.335       2.224       1.114      3.3313E-03
   6    9.997       8.887       7.776       6.666       5.555       4.445       3.335       2.224       1.114      3.3313E-03
   7    9.997       8.887       7.776       6.666       5.555       4.445       3.335       2.224       1.114      3.3313E-03
   8    9.997       8.887       7.776       6.666       5.555       4.445       3.335       2.224       1.114      3.3313E-03
   9    9.997       8.887       7.776       6.666       5.555       4.445       3.335       2.224       1.114      3.3313E-03
  10    9.997       8.887       7.776       6.666       5.555       4.445       3.335       2.224       1.114      3.3313E-03
1
              HEAD IN LAYER   2 AT END OF TIME STEP  43 IN STRESS PERIOD    3
  ---------------------------------------------------------------------------

            1           2           3           4           5           6           7           8           9          10
 ........................................................................................................................
   1    9.997       8.887       7.776       6.666       5.555       4.445       3.335       2.224       1.114      3.3313E-03
   2    9.997       8.887       7.776       6.666       5.555       4.445       3.335       2.224       1.114      3.3313E-03
   3    9.997       8.887       7.776       6.666       5.555       4.445       3.335       2.224       1.114      3.3313E-03
   4    9.997       8.887       7.776       6.666       5.555       4.445       3.335       2.224       1.114      3.3313E-03
   5    9.997       8.887       7.776       6.666       5.555       4.445       3.335       2.224       1.114      3.3313E-03
   6    9.997       8.887       7.776       6.666       5.555       4.445       3.335       2.224       1.114      3.3313E-03
   7    9.997       8.887       7.776       6.666       5.555       4.445       3.335       2.224       1.114      3.3313E-03
   8    9.997       8.887       7.776       6.666       5.555       4.445       3.335       2.224       1.114      3.3313E-03
   9    9.997       8.887       7.776       6.666       5.555       4.445       3.335       2.224       1.114      3.3313E-03
  10    9.997       8.887       7.776       6.666       5.555       4.445       3.335       2.224       1.114      3.3313E-03
1
              HEAD IN LAYER   3 AT END OF TIME STEP  43 IN STRESS PERIOD    3
  ---------------------------------------------------------------------------

            1           2           3           4           5           6           7           8           9          10
 ........................................................................................................................
   1    9.997       8.887       7.776       6.666       5.555       4.445       3.335       2.224       1.114      3.3313E-03
   2    9.997       8.887       7.776       6.666       5.555       4.445       3.335       2.224       1.114      3.3313E-03
   3    9.997       8.887       7.776       6.666       5.555       4.445       3.335       2.224       1.114      3.3313E-03
   4    9.997       8.887       7.776       6.666       5.555       4.445       3.335       2.224       1.114      3.3313E-03
   5    9.997       8.887       7.776       6.666       5.555       4.445       3.335       2.224       1.114      3.3313E-03
   6    9.997       8.887       7.776       6.666       5.555       4.445       3.335       2.224       1.114      3.3313E-03
   7    9.997       8.887       7.776       6.666       5.555       4.445       3.335       2.224       1.114      3.3313E-03
   8    9.997       8.887       7.776       6.666       5.555       4.445       3.335       2.224       1.114      3.3313E-03
   9    9.997       8.887       7.776       6.666       5.555       4.445       3.335       2.224       1.114      3.3313E-03
  10    9.997       8.887       7.776       6.666       5.555       4.445       3.335       2.224       1.114      3.3313E-03
1
              HEAD IN LAYER   4 AT END OF TIME STEP  43 IN STRESS PERIOD    3
  ---------------------------------------------------------------------------

            1           2           3           4           5           6           7           8           9          10
 ........................................................................................................................
   1    9.997       8.887       7.776       6.666       5.555       4.445       3.335       2.224       1.114      3.3313E-03
   2    9.997       8.887       7.776       6.666       5.555       4.445       3.335       2.224       1.114      3.3313E-03
   3    9.997       8.887       7.776       6.666       5.555       4.445       3.335       2.224       1.114      3.3313E-03
   4    9.997       8.887       7.776       6.666       5.555       4.445       3.335       2.224       1.114      3.3313E-03
   5    9.997       8.887       7.776       6.666       5.555       4.445       3.335       2.224       1.114      3.3313E-03
   6    9.997       8.887       7.776       6.666       5.555       4.445       3.335       2.224       1.114      3.3313E-03
   7    9.997       8.887       7.776       6.666       5.555       4.445       3.335       2.224       1.114      3.3313E-03
   8    9.997       8.887       7.776       6.666       5.555       4.445       3.335       2.224       1.114      3.3313E-03
   9    9.997       8.887       7.776       6.666       5.555       4.445       3.335       2.224       1.114      3.3313E-03
  10    9.997       8.887       7.776       6.666       5.555       4.445       3.335       2.224       1.114      3.3313E-03

 HEAD WILL BE SAVED ON UNIT   51 AT END OF TIME STEP   43, STRESS PERIOD    3

 DRAWDOWN WILL BE SAVED ON UNIT   52 AT END OF TIME STEP   43, STRESS PERIOD    3
1
  VOLUMETRIC BUDGET FOR ENTIRE MODEL AT END OF TIME STEP   43, STRESS PERIOD   3
  ------------------------------------------------------------------------------

     CUMULATIVE VOLUMES      L**3       RATES FOR THIS TIME STEP      L**3/T
     ------------------                 ------------------------

           IN:                                      IN:
           ---                                      ---
             STORAGE =       1.0477E-08               STORAGE =           0.0000
       CONSTANT HEAD =           0.0000         CONSTANT HEAD =           0.0000
               WELLS =           0.0000                 WELLS =           0.0000
     HEAD DEP BOUNDS =       95948.9453       HEAD DEP BOUNDS =         666.3123

            TOTAL IN =       95948.9453              TOTAL IN =         666.3123

          OUT:                                     OUT:
          ----                                     ----
             STORAGE =       5.2387E-08               STORAGE =           0.0000
       CONSTANT HEAD =           0.0000         CONSTANT HEAD =           0.0000
               WELLS =           0.0000                 WELLS =           0.0000
     HEAD DEP BOUNDS =       95941.2188       HEAD DEP BOUNDS =         666.2595

           TOTAL OUT =       95941.2188             TOTAL OUT =         666.2595

            IN - OUT =           7.7266              IN - OUT =       5.2795E-02

 PERCENT DISCREPANCY =           0.01     PERCENT DISCREPANCY =           0.01






         TIME SUMMARY AT END OF TIME STEP   43 IN STRESS PERIOD    3
                    SECONDS     MINUTES      HOURS       DAYS        YEARS
                    -----------------------------------------------------------
   TIME STEP LENGTH  86400.      1440.0      24.000      1.0000     2.73785E-03
 STRESS PERIOD TIME 3.71520E+06  61920.      1032.0      43.000     0.11773    
         TOTAL TIME 1.24416E+07 2.07360E+05  3456.0      144.00     0.39425    
1
 
 SOLVING FOR HEAD 

 OUTPUT CONTROL FOR STRESS PERIOD    3   TIME STEP   44
    SAVE HEAD FOR ALL LAYERS
    SAVE DRAWDOWN FOR ALL LAYERS
    SAVE BUDGET
    PRINT HEAD FOR ALL LAYERS
    PRINT BUDGET
 UBDSV1 SAVING "         STORAGE" ON UNIT  53 AT TIME STEP 44, STRESS PERIOD   3
 UBDSV2 SAVING "   CONSTANT HEAD" ON UNIT  53 AT TIME STEP 44, STRESS PERIOD   3
 UBDSV1 SAVING "FLOW RIGHT FACE " ON UNIT  53 AT TIME STEP 44, STRESS PERIOD   3
 UBDSV1 SAVING "FLOW FRONT FACE " ON UNIT  53 AT TIME STEP 44, STRESS PERIOD   3
 UBDSV1 SAVING "FLOW LOWER FACE " ON UNIT  53 AT TIME STEP 44, STRESS PERIOD   3
1
              HEAD IN LAYER   1 AT END OF TIME STEP  44 IN STRESS PERIOD    3
  ---------------------------------------------------------------------------

            1           2           3           4           5           6           7           8           9          10
 ........................................................................................................................
   1    9.997       8.887       7.776       6.666       5.555       4.445       3.335       2.224       1.114      3.3313E-03
   2    9.997       8.887       7.776       6.666       5.555       4.445       3.335       2.224       1.114      3.3313E-03
   3    9.997       8.887       7.776       6.666       5.555       4.445       3.335       2.224       1.114      3.3313E-03
   4    9.997       8.887       7.776       6.666       5.555       4.445       3.335       2.224       1.114      3.3313E-03
   5    9.997       8.887       7.776       6.666       5.555       4.445       3.335       2.224       1.114      3.3313E-03
   6    9.997       8.887       7.776       6.666       5.555       4.445       3.335       2.224       1.114      3.3313E-03
   7    9.997       8.887       7.776       6.666       5.555       4.445       3.335       2.224       1.114      3.3313E-03
   8    9.997       8.887       7.776       6.666       5.555       4.445       3.335       2.224       1.114      3.3313E-03
   9    9.997       8.887       7.776       6.666       5.555       4.445       3.335       2.224       1.114      3.3313E-03
  10    9.997       8.887       7.776       6.666       5.555       4.445       3.335       2.224       1.114      3.3313E-03
1
              HEAD IN LAYER   2 AT END OF TIME STEP  44 IN STRESS PERIOD    3
  ---------------------------------------------------------------------------

            1           2           3           4           5           6           7           8           9          10
 ........................................................................................................................
   1    9.997       8.887       7.776       6.666       5.555       4.445       3.335       2.224       1.114      3.3313E-03
   2    9.997       8.887       7.776       6.666       5.555       4.445       3.335       2.224       1.114      3.3313E-03
   3    9.997       8.887       7.776       6.666       5.555       4.445       3.335       2.224       1.114      3.3313E-03
   4    9.997       8.887       7.776       6.666       5.555       4.445       3.335       2.224       1.114      3.3313E-03
   5    9.997       8.887       7.776       6.666       5.555       4.445       3.335       2.224       1.114      3.3313E-03
   6    9.997       8.887       7.776       6.666       5.555       4.445       3.335       2.224       1.114      3.3313E-03
   7    9.997       8.887       7.776       6.666       5.555       4.445       3.335       2.224       1.114      3.3313E-03
   8    9.997       8.887       7.776       6.666       5.555       4.445       3.335       2.224       1.114      3.3313E-03
   9    9.997       8.887       7.776       6.666       5.555       4.445       3.335       2.224       1.114      3.3313E-03
  10    9.997       8.887       7.776       6.666       5.555       4.445       3.335       2.224       1.114      3.3313E-03
1
              HEAD IN LAYER   3 AT END OF TIME STEP  44 IN STRESS PERIOD    3
  ---------------------------------------------------------------------------

            1           2           3           4           5           6           7           8           9          10
 ........................................................................................................................
   1    9.997       8.887       7.776       6.666       5.555       4.445       3.335       2.224       1.114      3.3313E-03
   2    9.997       8.887       7.776       6.666       5.555       4.445       3.335       2.224       1.114      3.3313E-03
   3    9.997       8.887       7.776       6.666       5.555       4.445       3.335       2.224       1.114      3.3313E-03
   4    9.997       8.887       7.776       6.666       5.555       4.445       3.335       2.224       1.114      3.3313E-03
   5    9.997       8.887       7.776       6.666       5.555       4.445       3.335       2.224       1.114      3.3313E-03
   6    9.997       8.887       7.776       6.666       5.555       4.445       3.335       2.224       1.114      3.3313E-03
   7    9.997       8.887       7.776       6.666       5.555       4.445       3.335       2.224       1.114      3.3313E-03
   8    9.997       8.887       7.776       6.666       5.555       4.445       3.335       2.224       1.114      3.3313E-03
   9    9.997       8.887       7.776       6.666       5.555       4.445       3.335       2.224       1.114      3.3313E-03
  10    9.997       8.887       7.776       6.666       5.555       4.445       3.335       2.224       1.114      3.3313E-03
1
              HEAD IN LAYER   4 AT END OF TIME STEP  44 IN STRESS PERIOD    3
  ---------------------------------------------------------------------------

            1           2           3           4           5           6           7           8           9          10
 ........................................................................................................................
   1    9.997       8.887       7.776       6.666       5.555       4.445       3.335       2.224       1.114      3.3313E-03
   2    9.997       8.887       7.776       6.666       5.555       4.445       3.335       2.224       1.114      3.3313E-03
   3    9.997       8.887       7.776       6.666       5.555       4.445       3.335       2.224       1.114      3.3313E-03
   4    9.997       8.887       7.776       6.666       5.555       4.445       3.335       2.224       1.114      3.3313E-03
   5    9.997       8.887       7.776       6.666       5.555       4.445       3.335       2.224       1.114      3.3313E-03
   6    9.997       8.887       7.776       6.666       5.555       4.445       3.335       2.224       1.114      3.3313E-03
   7    9.997       8.887       7.776       6.666       5.555       4.445       3.335       2.224       1.114      3.3313E-03
   8    9.997       8.887       7.776       6.666       5.555       4.445       3.335       2.224       1.114      3.3313E-03
   9    9.997       8.887       7.776       6.666       5.555       4.445       3.335       2.224       1.114      3.3313E-03
  10    9.997       8.887       7.776       6.666       5.555       4.445       3.335       2.224       1.114      3.3313E-03

 HEAD WILL BE SAVED ON UNIT   51 AT END OF TIME STEP   44, STRESS PERIOD    3

 DRAWDOWN WILL BE SAVED ON UNIT   52 AT END OF TIME STEP   44, STRESS PERIOD    3
1
  VOLUMETRIC BUDGET FOR ENTIRE MODEL AT END OF TIME STEP   44, STRESS PERIOD   3
  ------------------------------------------------------------------------------

     CUMULATIVE VOLUMES      L**3       RATES FOR THIS TIME STEP      L**3/T
     ------------------                 ------------------------

           IN:                                      IN:
           ---                                      ---
             STORAGE =       1.0477E-08               STORAGE =           0.0000
       CONSTANT HEAD =           0.0000         CONSTANT HEAD =           0.0000
               WELLS =           0.0000                 WELLS =           0.0000
     HEAD DEP BOUNDS =       96615.2578       HEAD DEP BOUNDS =         666.3123

            TOTAL IN =       96615.2578              TOTAL IN =         666.3123

          OUT:                                     OUT:
          ----                                     ----
             STORAGE =       5.2387E-08               STORAGE =           0.0000
       CONSTANT HEAD =           0.0000         CONSTANT HEAD =           0.0000
               WELLS =           0.0000                 WELLS =           0.0000
     HEAD DEP BOUNDS =       96607.4766       HEAD DEP BOUNDS =         666.2595

           TOTAL OUT =       96607.4766             TOTAL OUT =         666.2595

            IN - OUT =           7.7812              IN - OUT =       5.2795E-02

 PERCENT DISCREPANCY =           0.01     PERCENT DISCREPANCY =           0.01






         TIME SUMMARY AT END OF TIME STEP   44 IN STRESS PERIOD    3
                    SECONDS     MINUTES      HOURS       DAYS        YEARS
                    -----------------------------------------------------------
   TIME STEP LENGTH  86400.      1440.0      24.000      1.0000     2.73785E-03
 STRESS PERIOD TIME 3.80160E+06  63360.      1056.0      44.000     0.12047    
         TOTAL TIME 1.25280E+07 2.08800E+05  3480.0      145.00     0.39699    
1
 
 SOLVING FOR HEAD 

 OUTPUT CONTROL FOR STRESS PERIOD    3   TIME STEP   45
    SAVE HEAD FOR ALL LAYERS
    SAVE DRAWDOWN FOR ALL LAYERS
    SAVE BUDGET
    PRINT HEAD FOR ALL LAYERS
    PRINT BUDGET
 UBDSV1 SAVING "         STORAGE" ON UNIT  53 AT TIME STEP 45, STRESS PERIOD   3
 UBDSV2 SAVING "   CONSTANT HEAD" ON UNIT  53 AT TIME STEP 45, STRESS PERIOD   3
 UBDSV1 SAVING "FLOW RIGHT FACE " ON UNIT  53 AT TIME STEP 45, STRESS PERIOD   3
 UBDSV1 SAVING "FLOW FRONT FACE " ON UNIT  53 AT TIME STEP 45, STRESS PERIOD   3
 UBDSV1 SAVING "FLOW LOWER FACE " ON UNIT  53 AT TIME STEP 45, STRESS PERIOD   3
1
              HEAD IN LAYER   1 AT END OF TIME STEP  45 IN STRESS PERIOD    3
  ---------------------------------------------------------------------------

            1           2           3           4           5           6           7           8           9          10
 ........................................................................................................................
   1    9.997       8.887       7.776       6.666       5.555       4.445       3.335       2.224       1.114      3.3313E-03
   2    9.997       8.887       7.776       6.666       5.555       4.445       3.335       2.224       1.114      3.3313E-03
   3    9.997       8.887       7.776       6.666       5.555       4.445       3.335       2.224       1.114      3.3313E-03
   4    9.997       8.887       7.776       6.666       5.555       4.445       3.335       2.224       1.114      3.3313E-03
   5    9.997       8.887       7.776       6.666       5.555       4.445       3.335       2.224       1.114      3.3313E-03
   6    9.997       8.887       7.776       6.666       5.555       4.445       3.335       2.224       1.114      3.3313E-03
   7    9.997       8.887       7.776       6.666       5.555       4.445       3.335       2.224       1.114      3.3313E-03
   8    9.997       8.887       7.776       6.666       5.555       4.445       3.335       2.224       1.114      3.3313E-03
   9    9.997       8.887       7.776       6.666       5.555       4.445       3.335       2.224       1.114      3.3313E-03
  10    9.997       8.887       7.776       6.666       5.555       4.445       3.335       2.224       1.114      3.3313E-03
1
              HEAD IN LAYER   2 AT END OF TIME STEP  45 IN STRESS PERIOD    3
  ---------------------------------------------------------------------------

            1           2           3           4           5           6           7           8           9          10
 ........................................................................................................................
   1    9.997       8.887       7.776       6.666       5.555       4.445       3.335       2.224       1.114      3.3313E-03
   2    9.997       8.887       7.776       6.666       5.555       4.445       3.335       2.224       1.114      3.3313E-03
   3    9.997       8.887       7.776       6.666       5.555       4.445       3.335       2.224       1.114      3.3313E-03
   4    9.997       8.887       7.776       6.666       5.555       4.445       3.335       2.224       1.114      3.3313E-03
   5    9.997       8.887       7.776       6.666       5.555       4.445       3.335       2.224       1.114      3.3313E-03
   6    9.997       8.887       7.776       6.666       5.555       4.445       3.335       2.224       1.114      3.3313E-03
   7    9.997       8.887       7.776       6.666       5.555       4.445       3.335       2.224       1.114      3.3313E-03
   8    9.997       8.887       7.776       6.666       5.555       4.445       3.335       2.224       1.114      3.3313E-03
   9    9.997       8.887       7.776       6.666       5.555       4.445       3.335       2.224       1.114      3.3313E-03
  10    9.997       8.887       7.776       6.666       5.555       4.445       3.335       2.224       1.114      3.3313E-03
1
              HEAD IN LAYER   3 AT END OF TIME STEP  45 IN STRESS PERIOD    3
  ---------------------------------------------------------------------------

            1           2           3           4           5           6           7           8           9          10
 ........................................................................................................................
   1    9.997       8.887       7.776       6.666       5.555       4.445       3.335       2.224       1.114      3.3313E-03
   2    9.997       8.887       7.776       6.666       5.555       4.445       3.335       2.224       1.114      3.3313E-03
   3    9.997       8.887       7.776       6.666       5.555       4.445       3.335       2.224       1.114      3.3313E-03
   4    9.997       8.887       7.776       6.666       5.555       4.445       3.335       2.224       1.114      3.3313E-03
   5    9.997       8.887       7.776       6.666       5.555       4.445       3.335       2.224       1.114      3.3313E-03
   6    9.997       8.887       7.776       6.666       5.555       4.445       3.335       2.224       1.114      3.3313E-03
   7    9.997       8.887       7.776       6.666       5.555       4.445       3.335       2.224       1.114      3.3313E-03
   8    9.997       8.887       7.776       6.666       5.555       4.445       3.335       2.224       1.114      3.3313E-03
   9    9.997       8.887       7.776       6.666       5.555       4.445       3.335       2.224       1.114      3.3313E-03
  10    9.997       8.887       7.776       6.666       5.555       4.445       3.335       2.224       1.114      3.3313E-03
1
              HEAD IN LAYER   4 AT END OF TIME STEP  45 IN STRESS PERIOD    3
  ---------------------------------------------------------------------------

            1           2           3           4           5           6           7           8           9          10
 ........................................................................................................................
   1    9.997       8.887       7.776       6.666       5.555       4.445       3.335       2.224       1.114      3.3313E-03
   2    9.997       8.887       7.776       6.666       5.555       4.445       3.335       2.224       1.114      3.3313E-03
   3    9.997       8.887       7.776       6.666       5.555       4.445       3.335       2.224       1.114      3.3313E-03
   4    9.997       8.887       7.776       6.666       5.555       4.445       3.335       2.224       1.114      3.3313E-03
   5    9.997       8.887       7.776       6.666       5.555       4.445       3.335       2.224       1.114      3.3313E-03
   6    9.997       8.887       7.776       6.666       5.555       4.445       3.335       2.224       1.114      3.3313E-03
   7    9.997       8.887       7.776       6.666       5.555       4.445       3.335       2.224       1.114      3.3313E-03
   8    9.997       8.887       7.776       6.666       5.555       4.445       3.335       2.224       1.114      3.3313E-03
   9    9.997       8.887       7.776       6.666       5.555       4.445       3.335       2.224       1.114      3.3313E-03
  10    9.997       8.887       7.776       6.666       5.555       4.445       3.335       2.224       1.114      3.3313E-03

 HEAD WILL BE SAVED ON UNIT   51 AT END OF TIME STEP   45, STRESS PERIOD    3

 DRAWDOWN WILL BE SAVED ON UNIT   52 AT END OF TIME STEP   45, STRESS PERIOD    3
1
  VOLUMETRIC BUDGET FOR ENTIRE MODEL AT END OF TIME STEP   45, STRESS PERIOD   3
  ------------------------------------------------------------------------------

     CUMULATIVE VOLUMES      L**3       RATES FOR THIS TIME STEP      L**3/T
     ------------------                 ------------------------

           IN:                                      IN:
           ---                                      ---
             STORAGE =       1.0477E-08               STORAGE =           0.0000
       CONSTANT HEAD =           0.0000         CONSTANT HEAD =           0.0000
               WELLS =           0.0000                 WELLS =           0.0000
     HEAD DEP BOUNDS =       97281.5703       HEAD DEP BOUNDS =         666.3123

            TOTAL IN =       97281.5703              TOTAL IN =         666.3123

          OUT:                                     OUT:
          ----                                     ----
             STORAGE =       5.2387E-08               STORAGE =           0.0000
       CONSTANT HEAD =           0.0000         CONSTANT HEAD =           0.0000
               WELLS =           0.0000                 WELLS =           0.0000
     HEAD DEP BOUNDS =       97273.7344       HEAD DEP BOUNDS =         666.2595

           TOTAL OUT =       97273.7344             TOTAL OUT =         666.2595

            IN - OUT =           7.8359              IN - OUT =       5.2795E-02

 PERCENT DISCREPANCY =           0.01     PERCENT DISCREPANCY =           0.01






         TIME SUMMARY AT END OF TIME STEP   45 IN STRESS PERIOD    3
                    SECONDS     MINUTES      HOURS       DAYS        YEARS
                    -----------------------------------------------------------
   TIME STEP LENGTH  86400.      1440.0      24.000      1.0000     2.73785E-03
 STRESS PERIOD TIME 3.88800E+06  64800.      1080.0      45.000     0.12320    
         TOTAL TIME 1.26144E+07 2.10240E+05  3504.0      146.00     0.39973    
1
 
 SOLVING FOR HEAD 

 OUTPUT CONTROL FOR STRESS PERIOD    3   TIME STEP   46
    SAVE HEAD FOR ALL LAYERS
    SAVE DRAWDOWN FOR ALL LAYERS
    SAVE BUDGET
    PRINT HEAD FOR ALL LAYERS
    PRINT BUDGET
 UBDSV1 SAVING "         STORAGE" ON UNIT  53 AT TIME STEP 46, STRESS PERIOD   3
 UBDSV2 SAVING "   CONSTANT HEAD" ON UNIT  53 AT TIME STEP 46, STRESS PERIOD   3
 UBDSV1 SAVING "FLOW RIGHT FACE " ON UNIT  53 AT TIME STEP 46, STRESS PERIOD   3
 UBDSV1 SAVING "FLOW FRONT FACE " ON UNIT  53 AT TIME STEP 46, STRESS PERIOD   3
 UBDSV1 SAVING "FLOW LOWER FACE " ON UNIT  53 AT TIME STEP 46, STRESS PERIOD   3
1
              HEAD IN LAYER   1 AT END OF TIME STEP  46 IN STRESS PERIOD    3
  ---------------------------------------------------------------------------

            1           2           3           4           5           6           7           8           9          10
 ........................................................................................................................
   1    9.997       8.887       7.776       6.666       5.555       4.445       3.335       2.224       1.114      3.3313E-03
   2    9.997       8.887       7.776       6.666       5.555       4.445       3.335       2.224       1.114      3.3313E-03
   3    9.997       8.887       7.776       6.666       5.555       4.445       3.335       2.224       1.114      3.3313E-03
   4    9.997       8.887       7.776       6.666       5.555       4.445       3.335       2.224       1.114      3.3313E-03
   5    9.997       8.887       7.776       6.666       5.555       4.445       3.335       2.224       1.114      3.3313E-03
   6    9.997       8.887       7.776       6.666       5.555       4.445       3.335       2.224       1.114      3.3313E-03
   7    9.997       8.887       7.776       6.666       5.555       4.445       3.335       2.224       1.114      3.3313E-03
   8    9.997       8.887       7.776       6.666       5.555       4.445       3.335       2.224       1.114      3.3313E-03
   9    9.997       8.887       7.776       6.666       5.555       4.445       3.335       2.224       1.114      3.3313E-03
  10    9.997       8.887       7.776       6.666       5.555       4.445       3.335       2.224       1.114      3.3313E-03
1
              HEAD IN LAYER   2 AT END OF TIME STEP  46 IN STRESS PERIOD    3
  ---------------------------------------------------------------------------

            1           2           3           4           5           6           7           8           9          10
 ........................................................................................................................
   1    9.997       8.887       7.776       6.666       5.555       4.445       3.335       2.224       1.114      3.3313E-03
   2    9.997       8.887       7.776       6.666       5.555       4.445       3.335       2.224       1.114      3.3313E-03
   3    9.997       8.887       7.776       6.666       5.555       4.445       3.335       2.224       1.114      3.3313E-03
   4    9.997       8.887       7.776       6.666       5.555       4.445       3.335       2.224       1.114      3.3313E-03
   5    9.997       8.887       7.776       6.666       5.555       4.445       3.335       2.224       1.114      3.3313E-03
   6    9.997       8.887       7.776       6.666       5.555       4.445       3.335       2.224       1.114      3.3313E-03
   7    9.997       8.887       7.776       6.666       5.555       4.445       3.335       2.224       1.114      3.3313E-03
   8    9.997       8.887       7.776       6.666       5.555       4.445       3.335       2.224       1.114      3.3313E-03
   9    9.997       8.887       7.776       6.666       5.555       4.445       3.335       2.224       1.114      3.3313E-03
  10    9.997       8.887       7.776       6.666       5.555       4.445       3.335       2.224       1.114      3.3313E-03
1
              HEAD IN LAYER   3 AT END OF TIME STEP  46 IN STRESS PERIOD    3
  ---------------------------------------------------------------------------

            1           2           3           4           5           6           7           8           9          10
 ........................................................................................................................
   1    9.997       8.887       7.776       6.666       5.555       4.445       3.335       2.224       1.114      3.3313E-03
   2    9.997       8.887       7.776       6.666       5.555       4.445       3.335       2.224       1.114      3.3313E-03
   3    9.997       8.887       7.776       6.666       5.555       4.445       3.335       2.224       1.114      3.3313E-03
   4    9.997       8.887       7.776       6.666       5.555       4.445       3.335       2.224       1.114      3.3313E-03
   5    9.997       8.887       7.776       6.666       5.555       4.445       3.335       2.224       1.114      3.3313E-03
   6    9.997       8.887       7.776       6.666       5.555       4.445       3.335       2.224       1.114      3.3313E-03
   7    9.997       8.887       7.776       6.666       5.555       4.445       3.335       2.224       1.114      3.3313E-03
   8    9.997       8.887       7.776       6.666       5.555       4.445       3.335       2.224       1.114      3.3313E-03
   9    9.997       8.887       7.776       6.666       5.555       4.445       3.335       2.224       1.114      3.3313E-03
  10    9.997       8.887       7.776       6.666       5.555       4.445       3.335       2.224       1.114      3.3313E-03
1
              HEAD IN LAYER   4 AT END OF TIME STEP  46 IN STRESS PERIOD    3
  ---------------------------------------------------------------------------

            1           2           3           4           5           6           7           8           9          10
 ........................................................................................................................
   1    9.997       8.887       7.776       6.666       5.555       4.445       3.335       2.224       1.114      3.3313E-03
   2    9.997       8.887       7.776       6.666       5.555       4.445       3.335       2.224       1.114      3.3313E-03
   3    9.997       8.887       7.776       6.666       5.555       4.445       3.335       2.224       1.114      3.3313E-03
   4    9.997       8.887       7.776       6.666       5.555       4.445       3.335       2.224       1.114      3.3313E-03
   5    9.997       8.887       7.776       6.666       5.555       4.445       3.335       2.224       1.114      3.3313E-03
   6    9.997       8.887       7.776       6.666       5.555       4.445       3.335       2.224       1.114      3.3313E-03
   7    9.997       8.887       7.776       6.666       5.555       4.445       3.335       2.224       1.114      3.3313E-03
   8    9.997       8.887       7.776       6.666       5.555       4.445       3.335       2.224       1.114      3.3313E-03
   9    9.997       8.887       7.776       6.666       5.555       4.445       3.335       2.224       1.114      3.3313E-03
  10    9.997       8.887       7.776       6.666       5.555       4.445       3.335       2.224       1.114      3.3313E-03

 HEAD WILL BE SAVED ON UNIT   51 AT END OF TIME STEP   46, STRESS PERIOD    3

 DRAWDOWN WILL BE SAVED ON UNIT   52 AT END OF TIME STEP   46, STRESS PERIOD    3
1
  VOLUMETRIC BUDGET FOR ENTIRE MODEL AT END OF TIME STEP   46, STRESS PERIOD   3
  ------------------------------------------------------------------------------

     CUMULATIVE VOLUMES      L**3       RATES FOR THIS TIME STEP      L**3/T
     ------------------                 ------------------------

           IN:                                      IN:
           ---                                      ---
             STORAGE =       1.0477E-08               STORAGE =           0.0000
       CONSTANT HEAD =           0.0000         CONSTANT HEAD =           0.0000
               WELLS =           0.0000                 WELLS =           0.0000
     HEAD DEP BOUNDS =       97947.8828       HEAD DEP BOUNDS =         666.3123

            TOTAL IN =       97947.8828              TOTAL IN =         666.3123

          OUT:                                     OUT:
          ----                                     ----
             STORAGE =       5.2387E-08               STORAGE =           0.0000
       CONSTANT HEAD =           0.0000         CONSTANT HEAD =           0.0000
               WELLS =           0.0000                 WELLS =           0.0000
     HEAD DEP BOUNDS =       97939.9922       HEAD DEP BOUNDS =         666.2595

           TOTAL OUT =       97939.9922             TOTAL OUT =         666.2595

            IN - OUT =           7.8906              IN - OUT =       5.2795E-02

 PERCENT DISCREPANCY =           0.01     PERCENT DISCREPANCY =           0.01






         TIME SUMMARY AT END OF TIME STEP   46 IN STRESS PERIOD    3
                    SECONDS     MINUTES      HOURS       DAYS        YEARS
                    -----------------------------------------------------------
   TIME STEP LENGTH  86400.      1440.0      24.000      1.0000     2.73785E-03
 STRESS PERIOD TIME 3.97440E+06  66240.      1104.0      46.000     0.12594    
         TOTAL TIME 1.27008E+07 2.11680E+05  3528.0      147.00     0.40246    
1
 
 SOLVING FOR HEAD 

 OUTPUT CONTROL FOR STRESS PERIOD    3   TIME STEP   47
    SAVE HEAD FOR ALL LAYERS
    SAVE DRAWDOWN FOR ALL LAYERS
    SAVE BUDGET
    PRINT HEAD FOR ALL LAYERS
    PRINT BUDGET
 UBDSV1 SAVING "         STORAGE" ON UNIT  53 AT TIME STEP 47, STRESS PERIOD   3
 UBDSV2 SAVING "   CONSTANT HEAD" ON UNIT  53 AT TIME STEP 47, STRESS PERIOD   3
 UBDSV1 SAVING "FLOW RIGHT FACE " ON UNIT  53 AT TIME STEP 47, STRESS PERIOD   3
 UBDSV1 SAVING "FLOW FRONT FACE " ON UNIT  53 AT TIME STEP 47, STRESS PERIOD   3
 UBDSV1 SAVING "FLOW LOWER FACE " ON UNIT  53 AT TIME STEP 47, STRESS PERIOD   3
1
              HEAD IN LAYER   1 AT END OF TIME STEP  47 IN STRESS PERIOD    3
  ---------------------------------------------------------------------------

            1           2           3           4           5           6           7           8           9          10
 ........................................................................................................................
   1    9.997       8.887       7.776       6.666       5.555       4.445       3.335       2.224       1.114      3.3313E-03
   2    9.997       8.887       7.776       6.666       5.555       4.445       3.335       2.224       1.114      3.3313E-03
   3    9.997       8.887       7.776       6.666       5.555       4.445       3.335       2.224       1.114      3.3313E-03
   4    9.997       8.887       7.776       6.666       5.555       4.445       3.335       2.224       1.114      3.3313E-03
   5    9.997       8.887       7.776       6.666       5.555       4.445       3.335       2.224       1.114      3.3313E-03
   6    9.997       8.887       7.776       6.666       5.555       4.445       3.335       2.224       1.114      3.3313E-03
   7    9.997       8.887       7.776       6.666       5.555       4.445       3.335       2.224       1.114      3.3313E-03
   8    9.997       8.887       7.776       6.666       5.555       4.445       3.335       2.224       1.114      3.3313E-03
   9    9.997       8.887       7.776       6.666       5.555       4.445       3.335       2.224       1.114      3.3313E-03
  10    9.997       8.887       7.776       6.666       5.555       4.445       3.335       2.224       1.114      3.3313E-03
1
              HEAD IN LAYER   2 AT END OF TIME STEP  47 IN STRESS PERIOD    3
  ---------------------------------------------------------------------------

            1           2           3           4           5           6           7           8           9          10
 ........................................................................................................................
   1    9.997       8.887       7.776       6.666       5.555       4.445       3.335       2.224       1.114      3.3313E-03
   2    9.997       8.887       7.776       6.666       5.555       4.445       3.335       2.224       1.114      3.3313E-03
   3    9.997       8.887       7.776       6.666       5.555       4.445       3.335       2.224       1.114      3.3313E-03
   4    9.997       8.887       7.776       6.666       5.555       4.445       3.335       2.224       1.114      3.3313E-03
   5    9.997       8.887       7.776       6.666       5.555       4.445       3.335       2.224       1.114      3.3313E-03
   6    9.997       8.887       7.776       6.666       5.555       4.445       3.335       2.224       1.114      3.3313E-03
   7    9.997       8.887       7.776       6.666       5.555       4.445       3.335       2.224       1.114      3.3313E-03
   8    9.997       8.887       7.776       6.666       5.555       4.445       3.335       2.224       1.114      3.3313E-03
   9    9.997       8.887       7.776       6.666       5.555       4.445       3.335       2.224       1.114      3.3313E-03
  10    9.997       8.887       7.776       6.666       5.555       4.445       3.335       2.224       1.114      3.3313E-03
1
              HEAD IN LAYER   3 AT END OF TIME STEP  47 IN STRESS PERIOD    3
  ---------------------------------------------------------------------------

            1           2           3           4           5           6           7           8           9          10
 ........................................................................................................................
   1    9.997       8.887       7.776       6.666       5.555       4.445       3.335       2.224       1.114      3.3313E-03
   2    9.997       8.887       7.776       6.666       5.555       4.445       3.335       2.224       1.114      3.3313E-03
   3    9.997       8.887       7.776       6.666       5.555       4.445       3.335       2.224       1.114      3.3313E-03
   4    9.997       8.887       7.776       6.666       5.555       4.445       3.335       2.224       1.114      3.3313E-03
   5    9.997       8.887       7.776       6.666       5.555       4.445       3.335       2.224       1.114      3.3313E-03
   6    9.997       8.887       7.776       6.666       5.555       4.445       3.335       2.224       1.114      3.3313E-03
   7    9.997       8.887       7.776       6.666       5.555       4.445       3.335       2.224       1.114      3.3313E-03
   8    9.997       8.887       7.776       6.666       5.555       4.445       3.335       2.224       1.114      3.3313E-03
   9    9.997       8.887       7.776       6.666       5.555       4.445       3.335       2.224       1.114      3.3313E-03
  10    9.997       8.887       7.776       6.666       5.555       4.445       3.335       2.224       1.114      3.3313E-03
1
              HEAD IN LAYER   4 AT END OF TIME STEP  47 IN STRESS PERIOD    3
  ---------------------------------------------------------------------------

            1           2           3           4           5           6           7           8           9          10
 ........................................................................................................................
   1    9.997       8.887       7.776       6.666       5.555       4.445       3.335       2.224       1.114      3.3313E-03
   2    9.997       8.887       7.776       6.666       5.555       4.445       3.335       2.224       1.114      3.3313E-03
   3    9.997       8.887       7.776       6.666       5.555       4.445       3.335       2.224       1.114      3.3313E-03
   4    9.997       8.887       7.776       6.666       5.555       4.445       3.335       2.224       1.114      3.3313E-03
   5    9.997       8.887       7.776       6.666       5.555       4.445       3.335       2.224       1.114      3.3313E-03
   6    9.997       8.887       7.776       6.666       5.555       4.445       3.335       2.224       1.114      3.3313E-03
   7    9.997       8.887       7.776       6.666       5.555       4.445       3.335       2.224       1.114      3.3313E-03
   8    9.997       8.887       7.776       6.666       5.555       4.445       3.335       2.224       1.114      3.3313E-03
   9    9.997       8.887       7.776       6.666       5.555       4.445       3.335       2.224       1.114      3.3313E-03
  10    9.997       8.887       7.776       6.666       5.555       4.445       3.335       2.224       1.114      3.3313E-03

 HEAD WILL BE SAVED ON UNIT   51 AT END OF TIME STEP   47, STRESS PERIOD    3

 DRAWDOWN WILL BE SAVED ON UNIT   52 AT END OF TIME STEP   47, STRESS PERIOD    3
1
  VOLUMETRIC BUDGET FOR ENTIRE MODEL AT END OF TIME STEP   47, STRESS PERIOD   3
  ------------------------------------------------------------------------------

     CUMULATIVE VOLUMES      L**3       RATES FOR THIS TIME STEP      L**3/T
     ------------------                 ------------------------

           IN:                                      IN:
           ---                                      ---
             STORAGE =       1.0477E-08               STORAGE =           0.0000
       CONSTANT HEAD =           0.0000         CONSTANT HEAD =           0.0000
               WELLS =           0.0000                 WELLS =           0.0000
     HEAD DEP BOUNDS =       98614.1953       HEAD DEP BOUNDS =         666.3123

            TOTAL IN =       98614.1953              TOTAL IN =         666.3123

          OUT:                                     OUT:
          ----                                     ----
             STORAGE =       5.2387E-08               STORAGE =           0.0000
       CONSTANT HEAD =           0.0000         CONSTANT HEAD =           0.0000
               WELLS =           0.0000                 WELLS =           0.0000
     HEAD DEP BOUNDS =       98606.2500       HEAD DEP BOUNDS =         666.2595

           TOTAL OUT =       98606.2500             TOTAL OUT =         666.2595

            IN - OUT =           7.9453              IN - OUT =       5.2795E-02

 PERCENT DISCREPANCY =           0.01     PERCENT DISCREPANCY =           0.01






         TIME SUMMARY AT END OF TIME STEP   47 IN STRESS PERIOD    3
                    SECONDS     MINUTES      HOURS       DAYS        YEARS
                    -----------------------------------------------------------
   TIME STEP LENGTH  86400.      1440.0      24.000      1.0000     2.73785E-03
 STRESS PERIOD TIME 4.06080E+06  67680.      1128.0      47.000     0.12868    
         TOTAL TIME 1.27872E+07 2.13120E+05  3552.0      148.00     0.40520    
1
 
 SOLVING FOR HEAD 

 OUTPUT CONTROL FOR STRESS PERIOD    3   TIME STEP   48
    SAVE HEAD FOR ALL LAYERS
    SAVE DRAWDOWN FOR ALL LAYERS
    SAVE BUDGET
    PRINT HEAD FOR ALL LAYERS
    PRINT BUDGET
 UBDSV1 SAVING "         STORAGE" ON UNIT  53 AT TIME STEP 48, STRESS PERIOD   3
 UBDSV2 SAVING "   CONSTANT HEAD" ON UNIT  53 AT TIME STEP 48, STRESS PERIOD   3
 UBDSV1 SAVING "FLOW RIGHT FACE " ON UNIT  53 AT TIME STEP 48, STRESS PERIOD   3
 UBDSV1 SAVING "FLOW FRONT FACE " ON UNIT  53 AT TIME STEP 48, STRESS PERIOD   3
 UBDSV1 SAVING "FLOW LOWER FACE " ON UNIT  53 AT TIME STEP 48, STRESS PERIOD   3
1
              HEAD IN LAYER   1 AT END OF TIME STEP  48 IN STRESS PERIOD    3
  ---------------------------------------------------------------------------

            1           2           3           4           5           6           7           8           9          10
 ........................................................................................................................
   1    9.997       8.887       7.776       6.666       5.555       4.445       3.335       2.224       1.114      3.3313E-03
   2    9.997       8.887       7.776       6.666       5.555       4.445       3.335       2.224       1.114      3.3313E-03
   3    9.997       8.887       7.776       6.666       5.555       4.445       3.335       2.224       1.114      3.3313E-03
   4    9.997       8.887       7.776       6.666       5.555       4.445       3.335       2.224       1.114      3.3313E-03
   5    9.997       8.887       7.776       6.666       5.555       4.445       3.335       2.224       1.114      3.3313E-03
   6    9.997       8.887       7.776       6.666       5.555       4.445       3.335       2.224       1.114      3.3313E-03
   7    9.997       8.887       7.776       6.666       5.555       4.445       3.335       2.224       1.114      3.3313E-03
   8    9.997       8.887       7.776       6.666       5.555       4.445       3.335       2.224       1.114      3.3313E-03
   9    9.997       8.887       7.776       6.666       5.555       4.445       3.335       2.224       1.114      3.3313E-03
  10    9.997       8.887       7.776       6.666       5.555       4.445       3.335       2.224       1.114      3.3313E-03
1
              HEAD IN LAYER   2 AT END OF TIME STEP  48 IN STRESS PERIOD    3
  ---------------------------------------------------------------------------

            1           2           3           4           5           6           7           8           9          10
 ........................................................................................................................
   1    9.997       8.887       7.776       6.666       5.555       4.445       3.335       2.224       1.114      3.3313E-03
   2    9.997       8.887       7.776       6.666       5.555       4.445       3.335       2.224       1.114      3.3313E-03
   3    9.997       8.887       7.776       6.666       5.555       4.445       3.335       2.224       1.114      3.3313E-03
   4    9.997       8.887       7.776       6.666       5.555       4.445       3.335       2.224       1.114      3.3313E-03
   5    9.997       8.887       7.776       6.666       5.555       4.445       3.335       2.224       1.114      3.3313E-03
   6    9.997       8.887       7.776       6.666       5.555       4.445       3.335       2.224       1.114      3.3313E-03
   7    9.997       8.887       7.776       6.666       5.555       4.445       3.335       2.224       1.114      3.3313E-03
   8    9.997       8.887       7.776       6.666       5.555       4.445       3.335       2.224       1.114      3.3313E-03
   9    9.997       8.887       7.776       6.666       5.555       4.445       3.335       2.224       1.114      3.3313E-03
  10    9.997       8.887       7.776       6.666       5.555       4.445       3.335       2.224       1.114      3.3313E-03
1
              HEAD IN LAYER   3 AT END OF TIME STEP  48 IN STRESS PERIOD    3
  ---------------------------------------------------------------------------

            1           2           3           4           5           6           7           8           9          10
 ........................................................................................................................
   1    9.997       8.887       7.776       6.666       5.555       4.445       3.335       2.224       1.114      3.3313E-03
   2    9.997       8.887       7.776       6.666       5.555       4.445       3.335       2.224       1.114      3.3313E-03
   3    9.997       8.887       7.776       6.666       5.555       4.445       3.335       2.224       1.114      3.3313E-03
   4    9.997       8.887       7.776       6.666       5.555       4.445       3.335       2.224       1.114      3.3313E-03
   5    9.997       8.887       7.776       6.666       5.555       4.445       3.335       2.224       1.114      3.3313E-03
   6    9.997       8.887       7.776       6.666       5.555       4.445       3.335       2.224       1.114      3.3313E-03
   7    9.997       8.887       7.776       6.666       5.555       4.445       3.335       2.224       1.114      3.3313E-03
   8    9.997       8.887       7.776       6.666       5.555       4.445       3.335       2.224       1.114      3.3313E-03
   9    9.997       8.887       7.776       6.666       5.555       4.445       3.335       2.224       1.114      3.3313E-03
  10    9.997       8.887       7.776       6.666       5.555       4.445       3.335       2.224       1.114      3.3313E-03
1
              HEAD IN LAYER   4 AT END OF TIME STEP  48 IN STRESS PERIOD    3
  ---------------------------------------------------------------------------

            1           2           3           4           5           6           7           8           9          10
 ........................................................................................................................
   1    9.997       8.887       7.776       6.666       5.555       4.445       3.335       2.224       1.114      3.3313E-03
   2    9.997       8.887       7.776       6.666       5.555       4.445       3.335       2.224       1.114      3.3313E-03
   3    9.997       8.887       7.776       6.666       5.555       4.445       3.335       2.224       1.114      3.3313E-03
   4    9.997       8.887       7.776       6.666       5.555       4.445       3.335       2.224       1.114      3.3313E-03
   5    9.997       8.887       7.776       6.666       5.555       4.445       3.335       2.224       1.114      3.3313E-03
   6    9.997       8.887       7.776       6.666       5.555       4.445       3.335       2.224       1.114      3.3313E-03
   7    9.997       8.887       7.776       6.666       5.555       4.445       3.335       2.224       1.114      3.3313E-03
   8    9.997       8.887       7.776       6.666       5.555       4.445       3.335       2.224       1.114      3.3313E-03
   9    9.997       8.887       7.776       6.666       5.555       4.445       3.335       2.224       1.114      3.3313E-03
  10    9.997       8.887       7.776       6.666       5.555       4.445       3.335       2.224       1.114      3.3313E-03

 HEAD WILL BE SAVED ON UNIT   51 AT END OF TIME STEP   48, STRESS PERIOD    3

 DRAWDOWN WILL BE SAVED ON UNIT   52 AT END OF TIME STEP   48, STRESS PERIOD    3
1
  VOLUMETRIC BUDGET FOR ENTIRE MODEL AT END OF TIME STEP   48, STRESS PERIOD   3
  ------------------------------------------------------------------------------

     CUMULATIVE VOLUMES      L**3       RATES FOR THIS TIME STEP      L**3/T
     ------------------                 ------------------------

           IN:                                      IN:
           ---                                      ---
             STORAGE =       1.0477E-08               STORAGE =           0.0000
       CONSTANT HEAD =           0.0000         CONSTANT HEAD =           0.0000
               WELLS =           0.0000                 WELLS =           0.0000
     HEAD DEP BOUNDS =       99280.5078       HEAD DEP BOUNDS =         666.3123

            TOTAL IN =       99280.5078              TOTAL IN =         666.3123

          OUT:                                     OUT:
          ----                                     ----
             STORAGE =       5.2387E-08               STORAGE =           0.0000
       CONSTANT HEAD =           0.0000         CONSTANT HEAD =           0.0000
               WELLS =           0.0000                 WELLS =           0.0000
     HEAD DEP BOUNDS =       99272.5078       HEAD DEP BOUNDS =         666.2595

           TOTAL OUT =       99272.5078             TOTAL OUT =         666.2595

            IN - OUT =           8.0000              IN - OUT =       5.2795E-02

 PERCENT DISCREPANCY =           0.01     PERCENT DISCREPANCY =           0.01






         TIME SUMMARY AT END OF TIME STEP   48 IN STRESS PERIOD    3
                    SECONDS     MINUTES      HOURS       DAYS        YEARS
                    -----------------------------------------------------------
   TIME STEP LENGTH  86400.      1440.0      24.000      1.0000     2.73785E-03
 STRESS PERIOD TIME 4.14720E+06  69120.      1152.0      48.000     0.13142    
         TOTAL TIME 1.28736E+07 2.14560E+05  3576.0      149.00     0.40794    
1
 
 SOLVING FOR HEAD 

 OUTPUT CONTROL FOR STRESS PERIOD    3   TIME STEP   49
    SAVE HEAD FOR ALL LAYERS
    SAVE DRAWDOWN FOR ALL LAYERS
    SAVE BUDGET
    PRINT HEAD FOR ALL LAYERS
    PRINT BUDGET
 UBDSV1 SAVING "         STORAGE" ON UNIT  53 AT TIME STEP 49, STRESS PERIOD   3
 UBDSV2 SAVING "   CONSTANT HEAD" ON UNIT  53 AT TIME STEP 49, STRESS PERIOD   3
 UBDSV1 SAVING "FLOW RIGHT FACE " ON UNIT  53 AT TIME STEP 49, STRESS PERIOD   3
 UBDSV1 SAVING "FLOW FRONT FACE " ON UNIT  53 AT TIME STEP 49, STRESS PERIOD   3
 UBDSV1 SAVING "FLOW LOWER FACE " ON UNIT  53 AT TIME STEP 49, STRESS PERIOD   3
1
              HEAD IN LAYER   1 AT END OF TIME STEP  49 IN STRESS PERIOD    3
  ---------------------------------------------------------------------------

            1           2           3           4           5           6           7           8           9          10
 ........................................................................................................................
   1    9.997       8.887       7.776       6.666       5.555       4.445       3.335       2.224       1.114      3.3313E-03
   2    9.997       8.887       7.776       6.666       5.555       4.445       3.335       2.224       1.114      3.3313E-03
   3    9.997       8.887       7.776       6.666       5.555       4.445       3.335       2.224       1.114      3.3313E-03
   4    9.997       8.887       7.776       6.666       5.555       4.445       3.335       2.224       1.114      3.3313E-03
   5    9.997       8.887       7.776       6.666       5.555       4.445       3.335       2.224       1.114      3.3313E-03
   6    9.997       8.887       7.776       6.666       5.555       4.445       3.335       2.224       1.114      3.3313E-03
   7    9.997       8.887       7.776       6.666       5.555       4.445       3.335       2.224       1.114      3.3313E-03
   8    9.997       8.887       7.776       6.666       5.555       4.445       3.335       2.224       1.114      3.3313E-03
   9    9.997       8.887       7.776       6.666       5.555       4.445       3.335       2.224       1.114      3.3313E-03
  10    9.997       8.887       7.776       6.666       5.555       4.445       3.335       2.224       1.114      3.3313E-03
1
              HEAD IN LAYER   2 AT END OF TIME STEP  49 IN STRESS PERIOD    3
  ---------------------------------------------------------------------------

            1           2           3           4           5           6           7           8           9          10
 ........................................................................................................................
   1    9.997       8.887       7.776       6.666       5.555       4.445       3.335       2.224       1.114      3.3313E-03
   2    9.997       8.887       7.776       6.666       5.555       4.445       3.335       2.224       1.114      3.3313E-03
   3    9.997       8.887       7.776       6.666       5.555       4.445       3.335       2.224       1.114      3.3313E-03
   4    9.997       8.887       7.776       6.666       5.555       4.445       3.335       2.224       1.114      3.3313E-03
   5    9.997       8.887       7.776       6.666       5.555       4.445       3.335       2.224       1.114      3.3313E-03
   6    9.997       8.887       7.776       6.666       5.555       4.445       3.335       2.224       1.114      3.3313E-03
   7    9.997       8.887       7.776       6.666       5.555       4.445       3.335       2.224       1.114      3.3313E-03
   8    9.997       8.887       7.776       6.666       5.555       4.445       3.335       2.224       1.114      3.3313E-03
   9    9.997       8.887       7.776       6.666       5.555       4.445       3.335       2.224       1.114      3.3313E-03
  10    9.997       8.887       7.776       6.666       5.555       4.445       3.335       2.224       1.114      3.3313E-03
1
              HEAD IN LAYER   3 AT END OF TIME STEP  49 IN STRESS PERIOD    3
  ---------------------------------------------------------------------------

            1           2           3           4           5           6           7           8           9          10
 ........................................................................................................................
   1    9.997       8.887       7.776       6.666       5.555       4.445       3.335       2.224       1.114      3.3313E-03
   2    9.997       8.887       7.776       6.666       5.555       4.445       3.335       2.224       1.114      3.3313E-03
   3    9.997       8.887       7.776       6.666       5.555       4.445       3.335       2.224       1.114      3.3313E-03
   4    9.997       8.887       7.776       6.666       5.555       4.445       3.335       2.224       1.114      3.3313E-03
   5    9.997       8.887       7.776       6.666       5.555       4.445       3.335       2.224       1.114      3.3313E-03
   6    9.997       8.887       7.776       6.666       5.555       4.445       3.335       2.224       1.114      3.3313E-03
   7    9.997       8.887       7.776       6.666       5.555       4.445       3.335       2.224       1.114      3.3313E-03
   8    9.997       8.887       7.776       6.666       5.555       4.445       3.335       2.224       1.114      3.3313E-03
   9    9.997       8.887       7.776       6.666       5.555       4.445       3.335       2.224       1.114      3.3313E-03
  10    9.997       8.887       7.776       6.666       5.555       4.445       3.335       2.224       1.114      3.3313E-03
1
              HEAD IN LAYER   4 AT END OF TIME STEP  49 IN STRESS PERIOD    3
  ---------------------------------------------------------------------------

            1           2           3           4           5           6           7           8           9          10
 ........................................................................................................................
   1    9.997       8.887       7.776       6.666       5.555       4.445       3.335       2.224       1.114      3.3313E-03
   2    9.997       8.887       7.776       6.666       5.555       4.445       3.335       2.224       1.114      3.3313E-03
   3    9.997       8.887       7.776       6.666       5.555       4.445       3.335       2.224       1.114      3.3313E-03
   4    9.997       8.887       7.776       6.666       5.555       4.445       3.335       2.224       1.114      3.3313E-03
   5    9.997       8.887       7.776       6.666       5.555       4.445       3.335       2.224       1.114      3.3313E-03
   6    9.997       8.887       7.776       6.666       5.555       4.445       3.335       2.224       1.114      3.3313E-03
   7    9.997       8.887       7.776       6.666       5.555       4.445       3.335       2.224       1.114      3.3313E-03
   8    9.997       8.887       7.776       6.666       5.555       4.445       3.335       2.224       1.114      3.3313E-03
   9    9.997       8.887       7.776       6.666       5.555       4.445       3.335       2.224       1.114      3.3313E-03
  10    9.997       8.887       7.776       6.666       5.555       4.445       3.335       2.224       1.114      3.3313E-03

 HEAD WILL BE SAVED ON UNIT   51 AT END OF TIME STEP   49, STRESS PERIOD    3

 DRAWDOWN WILL BE SAVED ON UNIT   52 AT END OF TIME STEP   49, STRESS PERIOD    3
1
  VOLUMETRIC BUDGET FOR ENTIRE MODEL AT END OF TIME STEP   49, STRESS PERIOD   3
  ------------------------------------------------------------------------------

     CUMULATIVE VOLUMES      L**3       RATES FOR THIS TIME STEP      L**3/T
     ------------------                 ------------------------

           IN:                                      IN:
           ---                                      ---
             STORAGE =       1.0477E-08               STORAGE =           0.0000
       CONSTANT HEAD =           0.0000         CONSTANT HEAD =           0.0000
               WELLS =           0.0000                 WELLS =           0.0000
     HEAD DEP BOUNDS =       99946.8203       HEAD DEP BOUNDS =         666.3123

            TOTAL IN =       99946.8203              TOTAL IN =         666.3123

          OUT:                                     OUT:
          ----                                     ----
             STORAGE =       5.2387E-08               STORAGE =           0.0000
       CONSTANT HEAD =           0.0000         CONSTANT HEAD =           0.0000
               WELLS =           0.0000                 WELLS =           0.0000
     HEAD DEP BOUNDS =       99938.7656       HEAD DEP BOUNDS =         666.2595

           TOTAL OUT =       99938.7656             TOTAL OUT =         666.2595

            IN - OUT =           8.0547              IN - OUT =       5.2795E-02

 PERCENT DISCREPANCY =           0.01     PERCENT DISCREPANCY =           0.01






         TIME SUMMARY AT END OF TIME STEP   49 IN STRESS PERIOD    3
                    SECONDS     MINUTES      HOURS       DAYS        YEARS
                    -----------------------------------------------------------
   TIME STEP LENGTH  86400.      1440.0      24.000      1.0000     2.73785E-03
 STRESS PERIOD TIME 4.23360E+06  70560.      1176.0      49.000     0.13415    
         TOTAL TIME 1.29600E+07 2.16000E+05  3600.0      150.00     0.41068    
1
 
 SOLVING FOR HEAD 

 OUTPUT CONTROL FOR STRESS PERIOD    3   TIME STEP   50
    SAVE HEAD FOR ALL LAYERS
    SAVE DRAWDOWN FOR ALL LAYERS
    SAVE BUDGET
    PRINT HEAD FOR ALL LAYERS
    PRINT BUDGET
 UBDSV1 SAVING "         STORAGE" ON UNIT  53 AT TIME STEP 50, STRESS PERIOD   3
 UBDSV2 SAVING "   CONSTANT HEAD" ON UNIT  53 AT TIME STEP 50, STRESS PERIOD   3
 UBDSV1 SAVING "FLOW RIGHT FACE " ON UNIT  53 AT TIME STEP 50, STRESS PERIOD   3
 UBDSV1 SAVING "FLOW FRONT FACE " ON UNIT  53 AT TIME STEP 50, STRESS PERIOD   3
 UBDSV1 SAVING "FLOW LOWER FACE " ON UNIT  53 AT TIME STEP 50, STRESS PERIOD   3
1
              HEAD IN LAYER   1 AT END OF TIME STEP  50 IN STRESS PERIOD    3
  ---------------------------------------------------------------------------

            1           2           3           4           5           6           7           8           9          10
 ........................................................................................................................
   1    9.997       8.887       7.776       6.666       5.555       4.445       3.335       2.224       1.114      3.3313E-03
   2    9.997       8.887       7.776       6.666       5.555       4.445       3.335       2.224       1.114      3.3313E-03
   3    9.997       8.887       7.776       6.666       5.555       4.445       3.335       2.224       1.114      3.3313E-03
   4    9.997       8.887       7.776       6.666       5.555       4.445       3.335       2.224       1.114      3.3313E-03
   5    9.997       8.887       7.776       6.666       5.555       4.445       3.335       2.224       1.114      3.3313E-03
   6    9.997       8.887       7.776       6.666       5.555       4.445       3.335       2.224       1.114      3.3313E-03
   7    9.997       8.887       7.776       6.666       5.555       4.445       3.335       2.224       1.114      3.3313E-03
   8    9.997       8.887       7.776       6.666       5.555       4.445       3.335       2.224       1.114      3.3313E-03
   9    9.997       8.887       7.776       6.666       5.555       4.445       3.335       2.224       1.114      3.3313E-03
  10    9.997       8.887       7.776       6.666       5.555       4.445       3.335       2.224       1.114      3.3313E-03
1
              HEAD IN LAYER   2 AT END OF TIME STEP  50 IN STRESS PERIOD    3
  ---------------------------------------------------------------------------

            1           2           3           4           5           6           7           8           9          10
 ........................................................................................................................
   1    9.997       8.887       7.776       6.666       5.555       4.445       3.335       2.224       1.114      3.3313E-03
   2    9.997       8.887       7.776       6.666       5.555       4.445       3.335       2.224       1.114      3.3313E-03
   3    9.997       8.887       7.776       6.666       5.555       4.445       3.335       2.224       1.114      3.3313E-03
   4    9.997       8.887       7.776       6.666       5.555       4.445       3.335       2.224       1.114      3.3313E-03
   5    9.997       8.887       7.776       6.666       5.555       4.445       3.335       2.224       1.114      3.3313E-03
   6    9.997       8.887       7.776       6.666       5.555       4.445       3.335       2.224       1.114      3.3313E-03
   7    9.997       8.887       7.776       6.666       5.555       4.445       3.335       2.224       1.114      3.3313E-03
   8    9.997       8.887       7.776       6.666       5.555       4.445       3.335       2.224       1.114      3.3313E-03
   9    9.997       8.887       7.776       6.666       5.555       4.445       3.335       2.224       1.114      3.3313E-03
  10    9.997       8.887       7.776       6.666       5.555       4.445       3.335       2.224       1.114      3.3313E-03
1
              HEAD IN LAYER   3 AT END OF TIME STEP  50 IN STRESS PERIOD    3
  ---------------------------------------------------------------------------

            1           2           3           4           5           6           7           8           9          10
 ........................................................................................................................
   1    9.997       8.887       7.776       6.666       5.555       4.445       3.335       2.224       1.114      3.3313E-03
   2    9.997       8.887       7.776       6.666       5.555       4.445       3.335       2.224       1.114      3.3313E-03
   3    9.997       8.887       7.776       6.666       5.555       4.445       3.335       2.224       1.114      3.3313E-03
   4    9.997       8.887       7.776       6.666       5.555       4.445       3.335       2.224       1.114      3.3313E-03
   5    9.997       8.887       7.776       6.666       5.555       4.445       3.335       2.224       1.114      3.3313E-03
   6    9.997       8.887       7.776       6.666       5.555       4.445       3.335       2.224       1.114      3.3313E-03
   7    9.997       8.887       7.776       6.666       5.555       4.445       3.335       2.224       1.114      3.3313E-03
   8    9.997       8.887       7.776       6.666       5.555       4.445       3.335       2.224       1.114      3.3313E-03
   9    9.997       8.887       7.776       6.666       5.555       4.445       3.335       2.224       1.114      3.3313E-03
  10    9.997       8.887       7.776       6.666       5.555       4.445       3.335       2.224       1.114      3.3313E-03
1
              HEAD IN LAYER   4 AT END OF TIME STEP  50 IN STRESS PERIOD    3
  ---------------------------------------------------------------------------

            1           2           3           4           5           6           7           8           9          10
 ........................................................................................................................
   1    9.997       8.887       7.776       6.666       5.555       4.445       3.335       2.224       1.114      3.3313E-03
   2    9.997       8.887       7.776       6.666       5.555       4.445       3.335       2.224       1.114      3.3313E-03
   3    9.997       8.887       7.776       6.666       5.555       4.445       3.335       2.224       1.114      3.3313E-03
   4    9.997       8.887       7.776       6.666       5.555       4.445       3.335       2.224       1.114      3.3313E-03
   5    9.997       8.887       7.776       6.666       5.555       4.445       3.335       2.224       1.114      3.3313E-03
   6    9.997       8.887       7.776       6.666       5.555       4.445       3.335       2.224       1.114      3.3313E-03
   7    9.997       8.887       7.776       6.666       5.555       4.445       3.335       2.224       1.114      3.3313E-03
   8    9.997       8.887       7.776       6.666       5.555       4.445       3.335       2.224       1.114      3.3313E-03
   9    9.997       8.887       7.776       6.666       5.555       4.445       3.335       2.224       1.114      3.3313E-03
  10    9.997       8.887       7.776       6.666       5.555       4.445       3.335       2.224       1.114      3.3313E-03

 HEAD WILL BE SAVED ON UNIT   51 AT END OF TIME STEP   50, STRESS PERIOD    3

 DRAWDOWN WILL BE SAVED ON UNIT   52 AT END OF TIME STEP   50, STRESS PERIOD    3
1
  VOLUMETRIC BUDGET FOR ENTIRE MODEL AT END OF TIME STEP   50, STRESS PERIOD   3
  ------------------------------------------------------------------------------

     CUMULATIVE VOLUMES      L**3       RATES FOR THIS TIME STEP      L**3/T
     ------------------                 ------------------------

           IN:                                      IN:
           ---                                      ---
             STORAGE =       1.0477E-08               STORAGE =           0.0000
       CONSTANT HEAD =           0.0000         CONSTANT HEAD =           0.0000
               WELLS =           0.0000                 WELLS =           0.0000
     HEAD DEP BOUNDS =      100613.1328       HEAD DEP BOUNDS =         666.3123

            TOTAL IN =      100613.1328              TOTAL IN =         666.3123

          OUT:                                     OUT:
          ----                                     ----
             STORAGE =       5.2387E-08               STORAGE =           0.0000
       CONSTANT HEAD =           0.0000         CONSTANT HEAD =           0.0000
               WELLS =           0.0000                 WELLS =           0.0000
     HEAD DEP BOUNDS =      100605.0234       HEAD DEP BOUNDS =         666.2595

           TOTAL OUT =      100605.0234             TOTAL OUT =         666.2595

            IN - OUT =           8.1094              IN - OUT =       5.2795E-02

 PERCENT DISCREPANCY =           0.01     PERCENT DISCREPANCY =           0.01






         TIME SUMMARY AT END OF TIME STEP   50 IN STRESS PERIOD    3
                    SECONDS     MINUTES      HOURS       DAYS        YEARS
                    -----------------------------------------------------------
   TIME STEP LENGTH  86400.      1440.0      24.000      1.0000     2.73785E-03
 STRESS PERIOD TIME 4.32000E+06  72000.      1200.0      50.000     0.13689    
         TOTAL TIME 1.30464E+07 2.17440E+05  3624.0      151.00     0.41342    
1
 
 SOLVING FOR HEAD 

 OUTPUT CONTROL FOR STRESS PERIOD    3   TIME STEP   51
    SAVE HEAD FOR ALL LAYERS
    SAVE DRAWDOWN FOR ALL LAYERS
    SAVE BUDGET
    PRINT HEAD FOR ALL LAYERS
    PRINT BUDGET
 UBDSV1 SAVING "         STORAGE" ON UNIT  53 AT TIME STEP 51, STRESS PERIOD   3
 UBDSV2 SAVING "   CONSTANT HEAD" ON UNIT  53 AT TIME STEP 51, STRESS PERIOD   3
 UBDSV1 SAVING "FLOW RIGHT FACE " ON UNIT  53 AT TIME STEP 51, STRESS PERIOD   3
 UBDSV1 SAVING "FLOW FRONT FACE " ON UNIT  53 AT TIME STEP 51, STRESS PERIOD   3
 UBDSV1 SAVING "FLOW LOWER FACE " ON UNIT  53 AT TIME STEP 51, STRESS PERIOD   3
1
              HEAD IN LAYER   1 AT END OF TIME STEP  51 IN STRESS PERIOD    3
  ---------------------------------------------------------------------------

            1           2           3           4           5           6           7           8           9          10
 ........................................................................................................................
   1    9.997       8.887       7.776       6.666       5.555       4.445       3.335       2.224       1.114      3.3313E-03
   2    9.997       8.887       7.776       6.666       5.555       4.445       3.335       2.224       1.114      3.3313E-03
   3    9.997       8.887       7.776       6.666       5.555       4.445       3.335       2.224       1.114      3.3313E-03
   4    9.997       8.887       7.776       6.666       5.555       4.445       3.335       2.224       1.114      3.3313E-03
   5    9.997       8.887       7.776       6.666       5.555       4.445       3.335       2.224       1.114      3.3313E-03
   6    9.997       8.887       7.776       6.666       5.555       4.445       3.335       2.224       1.114      3.3313E-03
   7    9.997       8.887       7.776       6.666       5.555       4.445       3.335       2.224       1.114      3.3313E-03
   8    9.997       8.887       7.776       6.666       5.555       4.445       3.335       2.224       1.114      3.3313E-03
   9    9.997       8.887       7.776       6.666       5.555       4.445       3.335       2.224       1.114      3.3313E-03
  10    9.997       8.887       7.776       6.666       5.555       4.445       3.335       2.224       1.114      3.3313E-03
1
              HEAD IN LAYER   2 AT END OF TIME STEP  51 IN STRESS PERIOD    3
  ---------------------------------------------------------------------------

            1           2           3           4           5           6           7           8           9          10
 ........................................................................................................................
   1    9.997       8.887       7.776       6.666       5.555       4.445       3.335       2.224       1.114      3.3313E-03
   2    9.997       8.887       7.776       6.666       5.555       4.445       3.335       2.224       1.114      3.3313E-03
   3    9.997       8.887       7.776       6.666       5.555       4.445       3.335       2.224       1.114      3.3313E-03
   4    9.997       8.887       7.776       6.666       5.555       4.445       3.335       2.224       1.114      3.3313E-03
   5    9.997       8.887       7.776       6.666       5.555       4.445       3.335       2.224       1.114      3.3313E-03
   6    9.997       8.887       7.776       6.666       5.555       4.445       3.335       2.224       1.114      3.3313E-03
   7    9.997       8.887       7.776       6.666       5.555       4.445       3.335       2.224       1.114      3.3313E-03
   8    9.997       8.887       7.776       6.666       5.555       4.445       3.335       2.224       1.114      3.3313E-03
   9    9.997       8.887       7.776       6.666       5.555       4.445       3.335       2.224       1.114      3.3313E-03
  10    9.997       8.887       7.776       6.666       5.555       4.445       3.335       2.224       1.114      3.3313E-03
1
              HEAD IN LAYER   3 AT END OF TIME STEP  51 IN STRESS PERIOD    3
  ---------------------------------------------------------------------------

            1           2           3           4           5           6           7           8           9          10
 ........................................................................................................................
   1    9.997       8.887       7.776       6.666       5.555       4.445       3.335       2.224       1.114      3.3313E-03
   2    9.997       8.887       7.776       6.666       5.555       4.445       3.335       2.224       1.114      3.3313E-03
   3    9.997       8.887       7.776       6.666       5.555       4.445       3.335       2.224       1.114      3.3313E-03
   4    9.997       8.887       7.776       6.666       5.555       4.445       3.335       2.224       1.114      3.3313E-03
   5    9.997       8.887       7.776       6.666       5.555       4.445       3.335       2.224       1.114      3.3313E-03
   6    9.997       8.887       7.776       6.666       5.555       4.445       3.335       2.224       1.114      3.3313E-03
   7    9.997       8.887       7.776       6.666       5.555       4.445       3.335       2.224       1.114      3.3313E-03
   8    9.997       8.887       7.776       6.666       5.555       4.445       3.335       2.224       1.114      3.3313E-03
   9    9.997       8.887       7.776       6.666       5.555       4.445       3.335       2.224       1.114      3.3313E-03
  10    9.997       8.887       7.776       6.666       5.555       4.445       3.335       2.224       1.114      3.3313E-03
1
              HEAD IN LAYER   4 AT END OF TIME STEP  51 IN STRESS PERIOD    3
  ---------------------------------------------------------------------------

            1           2           3           4           5           6           7           8           9          10
 ........................................................................................................................
   1    9.997       8.887       7.776       6.666       5.555       4.445       3.335       2.224       1.114      3.3313E-03
   2    9.997       8.887       7.776       6.666       5.555       4.445       3.335       2.224       1.114      3.3313E-03
   3    9.997       8.887       7.776       6.666       5.555       4.445       3.335       2.224       1.114      3.3313E-03
   4    9.997       8.887       7.776       6.666       5.555       4.445       3.335       2.224       1.114      3.3313E-03
   5    9.997       8.887       7.776       6.666       5.555       4.445       3.335       2.224       1.114      3.3313E-03
   6    9.997       8.887       7.776       6.666       5.555       4.445       3.335       2.224       1.114      3.3313E-03
   7    9.997       8.887       7.776       6.666       5.555       4.445       3.335       2.224       1.114      3.3313E-03
   8    9.997       8.887       7.776       6.666       5.555       4.445       3.335       2.224       1.114      3.3313E-03
   9    9.997       8.887       7.776       6.666       5.555       4.445       3.335       2.224       1.114      3.3313E-03
  10    9.997       8.887       7.776       6.666       5.555       4.445       3.335       2.224       1.114      3.3313E-03

 HEAD WILL BE SAVED ON UNIT   51 AT END OF TIME STEP   51, STRESS PERIOD    3

 DRAWDOWN WILL BE SAVED ON UNIT   52 AT END OF TIME STEP   51, STRESS PERIOD    3
1
  VOLUMETRIC BUDGET FOR ENTIRE MODEL AT END OF TIME STEP   51, STRESS PERIOD   3
  ------------------------------------------------------------------------------

     CUMULATIVE VOLUMES      L**3       RATES FOR THIS TIME STEP      L**3/T
     ------------------                 ------------------------

           IN:                                      IN:
           ---                                      ---
             STORAGE =       1.0477E-08               STORAGE =           0.0000
       CONSTANT HEAD =           0.0000         CONSTANT HEAD =           0.0000
               WELLS =           0.0000                 WELLS =           0.0000
     HEAD DEP BOUNDS =      101279.4453       HEAD DEP BOUNDS =         666.3123

            TOTAL IN =      101279.4453              TOTAL IN =         666.3123

          OUT:                                     OUT:
          ----                                     ----
             STORAGE =       5.2387E-08               STORAGE =           0.0000
       CONSTANT HEAD =           0.0000         CONSTANT HEAD =           0.0000
               WELLS =           0.0000                 WELLS =           0.0000
     HEAD DEP BOUNDS =      101271.2812       HEAD DEP BOUNDS =         666.2595

           TOTAL OUT =      101271.2812             TOTAL OUT =         666.2595

            IN - OUT =           8.1641              IN - OUT =       5.2795E-02

 PERCENT DISCREPANCY =           0.01     PERCENT DISCREPANCY =           0.01






         TIME SUMMARY AT END OF TIME STEP   51 IN STRESS PERIOD    3
                    SECONDS     MINUTES      HOURS       DAYS        YEARS
                    -----------------------------------------------------------
   TIME STEP LENGTH  86400.      1440.0      24.000      1.0000     2.73785E-03
 STRESS PERIOD TIME 4.40640E+06  73440.      1224.0      51.000     0.13963    
         TOTAL TIME 1.31328E+07 2.18880E+05  3648.0      152.00     0.41615    
1
 
 SOLVING FOR HEAD 

 OUTPUT CONTROL FOR STRESS PERIOD    3   TIME STEP   52
    SAVE HEAD FOR ALL LAYERS
    SAVE DRAWDOWN FOR ALL LAYERS
    SAVE BUDGET
    PRINT HEAD FOR ALL LAYERS
    PRINT BUDGET
 UBDSV1 SAVING "         STORAGE" ON UNIT  53 AT TIME STEP 52, STRESS PERIOD   3
 UBDSV2 SAVING "   CONSTANT HEAD" ON UNIT  53 AT TIME STEP 52, STRESS PERIOD   3
 UBDSV1 SAVING "FLOW RIGHT FACE " ON UNIT  53 AT TIME STEP 52, STRESS PERIOD   3
 UBDSV1 SAVING "FLOW FRONT FACE " ON UNIT  53 AT TIME STEP 52, STRESS PERIOD   3
 UBDSV1 SAVING "FLOW LOWER FACE " ON UNIT  53 AT TIME STEP 52, STRESS PERIOD   3
1
              HEAD IN LAYER   1 AT END OF TIME STEP  52 IN STRESS PERIOD    3
  ---------------------------------------------------------------------------

            1           2           3           4           5           6           7           8           9          10
 ........................................................................................................................
   1    9.997       8.887       7.776       6.666       5.555       4.445       3.335       2.224       1.114      3.3313E-03
   2    9.997       8.887       7.776       6.666       5.555       4.445       3.335       2.224       1.114      3.3313E-03
   3    9.997       8.887       7.776       6.666       5.555       4.445       3.335       2.224       1.114      3.3313E-03
   4    9.997       8.887       7.776       6.666       5.555       4.445       3.335       2.224       1.114      3.3313E-03
   5    9.997       8.887       7.776       6.666       5.555       4.445       3.335       2.224       1.114      3.3313E-03
   6    9.997       8.887       7.776       6.666       5.555       4.445       3.335       2.224       1.114      3.3313E-03
   7    9.997       8.887       7.776       6.666       5.555       4.445       3.335       2.224       1.114      3.3313E-03
   8    9.997       8.887       7.776       6.666       5.555       4.445       3.335       2.224       1.114      3.3313E-03
   9    9.997       8.887       7.776       6.666       5.555       4.445       3.335       2.224       1.114      3.3313E-03
  10    9.997       8.887       7.776       6.666       5.555       4.445       3.335       2.224       1.114      3.3313E-03
1
              HEAD IN LAYER   2 AT END OF TIME STEP  52 IN STRESS PERIOD    3
  ---------------------------------------------------------------------------

            1           2           3           4           5           6           7           8           9          10
 ........................................................................................................................
   1    9.997       8.887       7.776       6.666       5.555       4.445       3.335       2.224       1.114      3.3313E-03
   2    9.997       8.887       7.776       6.666       5.555       4.445       3.335       2.224       1.114      3.3313E-03
   3    9.997       8.887       7.776       6.666       5.555       4.445       3.335       2.224       1.114      3.3313E-03
   4    9.997       8.887       7.776       6.666       5.555       4.445       3.335       2.224       1.114      3.3313E-03
   5    9.997       8.887       7.776       6.666       5.555       4.445       3.335       2.224       1.114      3.3313E-03
   6    9.997       8.887       7.776       6.666       5.555       4.445       3.335       2.224       1.114      3.3313E-03
   7    9.997       8.887       7.776       6.666       5.555       4.445       3.335       2.224       1.114      3.3313E-03
   8    9.997       8.887       7.776       6.666       5.555       4.445       3.335       2.224       1.114      3.3313E-03
   9    9.997       8.887       7.776       6.666       5.555       4.445       3.335       2.224       1.114      3.3313E-03
  10    9.997       8.887       7.776       6.666       5.555       4.445       3.335       2.224       1.114      3.3313E-03
1
              HEAD IN LAYER   3 AT END OF TIME STEP  52 IN STRESS PERIOD    3
  ---------------------------------------------------------------------------

            1           2           3           4           5           6           7           8           9          10
 ........................................................................................................................
   1    9.997       8.887       7.776       6.666       5.555       4.445       3.335       2.224       1.114      3.3313E-03
   2    9.997       8.887       7.776       6.666       5.555       4.445       3.335       2.224       1.114      3.3313E-03
   3    9.997       8.887       7.776       6.666       5.555       4.445       3.335       2.224       1.114      3.3313E-03
   4    9.997       8.887       7.776       6.666       5.555       4.445       3.335       2.224       1.114      3.3313E-03
   5    9.997       8.887       7.776       6.666       5.555       4.445       3.335       2.224       1.114      3.3313E-03
   6    9.997       8.887       7.776       6.666       5.555       4.445       3.335       2.224       1.114      3.3313E-03
   7    9.997       8.887       7.776       6.666       5.555       4.445       3.335       2.224       1.114      3.3313E-03
   8    9.997       8.887       7.776       6.666       5.555       4.445       3.335       2.224       1.114      3.3313E-03
   9    9.997       8.887       7.776       6.666       5.555       4.445       3.335       2.224       1.114      3.3313E-03
  10    9.997       8.887       7.776       6.666       5.555       4.445       3.335       2.224       1.114      3.3313E-03
1
              HEAD IN LAYER   4 AT END OF TIME STEP  52 IN STRESS PERIOD    3
  ---------------------------------------------------------------------------

            1           2           3           4           5           6           7           8           9          10
 ........................................................................................................................
   1    9.997       8.887       7.776       6.666       5.555       4.445       3.335       2.224       1.114      3.3313E-03
   2    9.997       8.887       7.776       6.666       5.555       4.445       3.335       2.224       1.114      3.3313E-03
   3    9.997       8.887       7.776       6.666       5.555       4.445       3.335       2.224       1.114      3.3313E-03
   4    9.997       8.887       7.776       6.666       5.555       4.445       3.335       2.224       1.114      3.3313E-03
   5    9.997       8.887       7.776       6.666       5.555       4.445       3.335       2.224       1.114      3.3313E-03
   6    9.997       8.887       7.776       6.666       5.555       4.445       3.335       2.224       1.114      3.3313E-03
   7    9.997       8.887       7.776       6.666       5.555       4.445       3.335       2.224       1.114      3.3313E-03
   8    9.997       8.887       7.776       6.666       5.555       4.445       3.335       2.224       1.114      3.3313E-03
   9    9.997       8.887       7.776       6.666       5.555       4.445       3.335       2.224       1.114      3.3313E-03
  10    9.997       8.887       7.776       6.666       5.555       4.445       3.335       2.224       1.114      3.3313E-03

 HEAD WILL BE SAVED ON UNIT   51 AT END OF TIME STEP   52, STRESS PERIOD    3

 DRAWDOWN WILL BE SAVED ON UNIT   52 AT END OF TIME STEP   52, STRESS PERIOD    3
1
  VOLUMETRIC BUDGET FOR ENTIRE MODEL AT END OF TIME STEP   52, STRESS PERIOD   3
  ------------------------------------------------------------------------------

     CUMULATIVE VOLUMES      L**3       RATES FOR THIS TIME STEP      L**3/T
     ------------------                 ------------------------

           IN:                                      IN:
           ---                                      ---
             STORAGE =       1.0477E-08               STORAGE =           0.0000
       CONSTANT HEAD =           0.0000         CONSTANT HEAD =           0.0000
               WELLS =           0.0000                 WELLS =           0.0000
     HEAD DEP BOUNDS =      101945.7578       HEAD DEP BOUNDS =         666.3123

            TOTAL IN =      101945.7578              TOTAL IN =         666.3123

          OUT:                                     OUT:
          ----                                     ----
             STORAGE =       5.2387E-08               STORAGE =           0.0000
       CONSTANT HEAD =           0.0000         CONSTANT HEAD =           0.0000
               WELLS =           0.0000                 WELLS =           0.0000
     HEAD DEP BOUNDS =      101937.5391       HEAD DEP BOUNDS =         666.2595

           TOTAL OUT =      101937.5391             TOTAL OUT =         666.2595

            IN - OUT =           8.2188              IN - OUT =       5.2795E-02

 PERCENT DISCREPANCY =           0.01     PERCENT DISCREPANCY =           0.01






         TIME SUMMARY AT END OF TIME STEP   52 IN STRESS PERIOD    3
                    SECONDS     MINUTES      HOURS       DAYS        YEARS
                    -----------------------------------------------------------
   TIME STEP LENGTH  86400.      1440.0      24.000      1.0000     2.73785E-03
 STRESS PERIOD TIME 4.49280E+06  74880.      1248.0      52.000     0.14237    
         TOTAL TIME 1.32192E+07 2.20320E+05  3672.0      153.00     0.41889    
1
 
 SOLVING FOR HEAD 

 OUTPUT CONTROL FOR STRESS PERIOD    3   TIME STEP   53
    SAVE HEAD FOR ALL LAYERS
    SAVE DRAWDOWN FOR ALL LAYERS
    SAVE BUDGET
    PRINT HEAD FOR ALL LAYERS
    PRINT BUDGET
 UBDSV1 SAVING "         STORAGE" ON UNIT  53 AT TIME STEP 53, STRESS PERIOD   3
 UBDSV2 SAVING "   CONSTANT HEAD" ON UNIT  53 AT TIME STEP 53, STRESS PERIOD   3
 UBDSV1 SAVING "FLOW RIGHT FACE " ON UNIT  53 AT TIME STEP 53, STRESS PERIOD   3
 UBDSV1 SAVING "FLOW FRONT FACE " ON UNIT  53 AT TIME STEP 53, STRESS PERIOD   3
 UBDSV1 SAVING "FLOW LOWER FACE " ON UNIT  53 AT TIME STEP 53, STRESS PERIOD   3
1
              HEAD IN LAYER   1 AT END OF TIME STEP  53 IN STRESS PERIOD    3
  ---------------------------------------------------------------------------

            1           2           3           4           5           6           7           8           9          10
 ........................................................................................................................
   1    9.997       8.887       7.776       6.666       5.555       4.445       3.335       2.224       1.114      3.3313E-03
   2    9.997       8.887       7.776       6.666       5.555       4.445       3.335       2.224       1.114      3.3313E-03
   3    9.997       8.887       7.776       6.666       5.555       4.445       3.335       2.224       1.114      3.3313E-03
   4    9.997       8.887       7.776       6.666       5.555       4.445       3.335       2.224       1.114      3.3313E-03
   5    9.997       8.887       7.776       6.666       5.555       4.445       3.335       2.224       1.114      3.3313E-03
   6    9.997       8.887       7.776       6.666       5.555       4.445       3.335       2.224       1.114      3.3313E-03
   7    9.997       8.887       7.776       6.666       5.555       4.445       3.335       2.224       1.114      3.3313E-03
   8    9.997       8.887       7.776       6.666       5.555       4.445       3.335       2.224       1.114      3.3313E-03
   9    9.997       8.887       7.776       6.666       5.555       4.445       3.335       2.224       1.114      3.3313E-03
  10    9.997       8.887       7.776       6.666       5.555       4.445       3.335       2.224       1.114      3.3313E-03
1
              HEAD IN LAYER   2 AT END OF TIME STEP  53 IN STRESS PERIOD    3
  ---------------------------------------------------------------------------

            1           2           3           4           5           6           7           8           9          10
 ........................................................................................................................
   1    9.997       8.887       7.776       6.666       5.555       4.445       3.335       2.224       1.114      3.3313E-03
   2    9.997       8.887       7.776       6.666       5.555       4.445       3.335       2.224       1.114      3.3313E-03
   3    9.997       8.887       7.776       6.666       5.555       4.445       3.335       2.224       1.114      3.3313E-03
   4    9.997       8.887       7.776       6.666       5.555       4.445       3.335       2.224       1.114      3.3313E-03
   5    9.997       8.887       7.776       6.666       5.555       4.445       3.335       2.224       1.114      3.3313E-03
   6    9.997       8.887       7.776       6.666       5.555       4.445       3.335       2.224       1.114      3.3313E-03
   7    9.997       8.887       7.776       6.666       5.555       4.445       3.335       2.224       1.114      3.3313E-03
   8    9.997       8.887       7.776       6.666       5.555       4.445       3.335       2.224       1.114      3.3313E-03
   9    9.997       8.887       7.776       6.666       5.555       4.445       3.335       2.224       1.114      3.3313E-03
  10    9.997       8.887       7.776       6.666       5.555       4.445       3.335       2.224       1.114      3.3313E-03
1
              HEAD IN LAYER   3 AT END OF TIME STEP  53 IN STRESS PERIOD    3
  ---------------------------------------------------------------------------

            1           2           3           4           5           6           7           8           9          10
 ........................................................................................................................
   1    9.997       8.887       7.776       6.666       5.555       4.445       3.335       2.224       1.114      3.3313E-03
   2    9.997       8.887       7.776       6.666       5.555       4.445       3.335       2.224       1.114      3.3313E-03
   3    9.997       8.887       7.776       6.666       5.555       4.445       3.335       2.224       1.114      3.3313E-03
   4    9.997       8.887       7.776       6.666       5.555       4.445       3.335       2.224       1.114      3.3313E-03
   5    9.997       8.887       7.776       6.666       5.555       4.445       3.335       2.224       1.114      3.3313E-03
   6    9.997       8.887       7.776       6.666       5.555       4.445       3.335       2.224       1.114      3.3313E-03
   7    9.997       8.887       7.776       6.666       5.555       4.445       3.335       2.224       1.114      3.3313E-03
   8    9.997       8.887       7.776       6.666       5.555       4.445       3.335       2.224       1.114      3.3313E-03
   9    9.997       8.887       7.776       6.666       5.555       4.445       3.335       2.224       1.114      3.3313E-03
  10    9.997       8.887       7.776       6.666       5.555       4.445       3.335       2.224       1.114      3.3313E-03
1
              HEAD IN LAYER   4 AT END OF TIME STEP  53 IN STRESS PERIOD    3
  ---------------------------------------------------------------------------

            1           2           3           4           5           6           7           8           9          10
 ........................................................................................................................
   1    9.997       8.887       7.776       6.666       5.555       4.445       3.335       2.224       1.114      3.3313E-03
   2    9.997       8.887       7.776       6.666       5.555       4.445       3.335       2.224       1.114      3.3313E-03
   3    9.997       8.887       7.776       6.666       5.555       4.445       3.335       2.224       1.114      3.3313E-03
   4    9.997       8.887       7.776       6.666       5.555       4.445       3.335       2.224       1.114      3.3313E-03
   5    9.997       8.887       7.776       6.666       5.555       4.445       3.335       2.224       1.114      3.3313E-03
   6    9.997       8.887       7.776       6.666       5.555       4.445       3.335       2.224       1.114      3.3313E-03
   7    9.997       8.887       7.776       6.666       5.555       4.445       3.335       2.224       1.114      3.3313E-03
   8    9.997       8.887       7.776       6.666       5.555       4.445       3.335       2.224       1.114      3.3313E-03
   9    9.997       8.887       7.776       6.666       5.555       4.445       3.335       2.224       1.114      3.3313E-03
  10    9.997       8.887       7.776       6.666       5.555       4.445       3.335       2.224       1.114      3.3313E-03

 HEAD WILL BE SAVED ON UNIT   51 AT END OF TIME STEP   53, STRESS PERIOD    3

 DRAWDOWN WILL BE SAVED ON UNIT   52 AT END OF TIME STEP   53, STRESS PERIOD    3
1
  VOLUMETRIC BUDGET FOR ENTIRE MODEL AT END OF TIME STEP   53, STRESS PERIOD   3
  ------------------------------------------------------------------------------

     CUMULATIVE VOLUMES      L**3       RATES FOR THIS TIME STEP      L**3/T
     ------------------                 ------------------------

           IN:                                      IN:
           ---                                      ---
             STORAGE =       1.0477E-08               STORAGE =           0.0000
       CONSTANT HEAD =           0.0000         CONSTANT HEAD =           0.0000
               WELLS =           0.0000                 WELLS =           0.0000
     HEAD DEP BOUNDS =      102612.0703       HEAD DEP BOUNDS =         666.3123

            TOTAL IN =      102612.0703              TOTAL IN =         666.3123

          OUT:                                     OUT:
          ----                                     ----
             STORAGE =       5.2387E-08               STORAGE =           0.0000
       CONSTANT HEAD =           0.0000         CONSTANT HEAD =           0.0000
               WELLS =           0.0000                 WELLS =           0.0000
     HEAD DEP BOUNDS =      102603.7969       HEAD DEP BOUNDS =         666.2595

           TOTAL OUT =      102603.7969             TOTAL OUT =         666.2595

            IN - OUT =           8.2734              IN - OUT =       5.2795E-02

 PERCENT DISCREPANCY =           0.01     PERCENT DISCREPANCY =           0.01






         TIME SUMMARY AT END OF TIME STEP   53 IN STRESS PERIOD    3
                    SECONDS     MINUTES      HOURS       DAYS        YEARS
                    -----------------------------------------------------------
   TIME STEP LENGTH  86400.      1440.0      24.000      1.0000     2.73785E-03
 STRESS PERIOD TIME 4.57920E+06  76320.      1272.0      53.000     0.14511    
         TOTAL TIME 1.33056E+07 2.21760E+05  3696.0      154.00     0.42163    
1
 
 SOLVING FOR HEAD 

 OUTPUT CONTROL FOR STRESS PERIOD    3   TIME STEP   54
    SAVE HEAD FOR ALL LAYERS
    SAVE DRAWDOWN FOR ALL LAYERS
    SAVE BUDGET
    PRINT HEAD FOR ALL LAYERS
    PRINT BUDGET
 UBDSV1 SAVING "         STORAGE" ON UNIT  53 AT TIME STEP 54, STRESS PERIOD   3
 UBDSV2 SAVING "   CONSTANT HEAD" ON UNIT  53 AT TIME STEP 54, STRESS PERIOD   3
 UBDSV1 SAVING "FLOW RIGHT FACE " ON UNIT  53 AT TIME STEP 54, STRESS PERIOD   3
 UBDSV1 SAVING "FLOW FRONT FACE " ON UNIT  53 AT TIME STEP 54, STRESS PERIOD   3
 UBDSV1 SAVING "FLOW LOWER FACE " ON UNIT  53 AT TIME STEP 54, STRESS PERIOD   3
1
              HEAD IN LAYER   1 AT END OF TIME STEP  54 IN STRESS PERIOD    3
  ---------------------------------------------------------------------------

            1           2           3           4           5           6           7           8           9          10
 ........................................................................................................................
   1    9.997       8.887       7.776       6.666       5.555       4.445       3.335       2.224       1.114      3.3313E-03
   2    9.997       8.887       7.776       6.666       5.555       4.445       3.335       2.224       1.114      3.3313E-03
   3    9.997       8.887       7.776       6.666       5.555       4.445       3.335       2.224       1.114      3.3313E-03
   4    9.997       8.887       7.776       6.666       5.555       4.445       3.335       2.224       1.114      3.3313E-03
   5    9.997       8.887       7.776       6.666       5.555       4.445       3.335       2.224       1.114      3.3313E-03
   6    9.997       8.887       7.776       6.666       5.555       4.445       3.335       2.224       1.114      3.3313E-03
   7    9.997       8.887       7.776       6.666       5.555       4.445       3.335       2.224       1.114      3.3313E-03
   8    9.997       8.887       7.776       6.666       5.555       4.445       3.335       2.224       1.114      3.3313E-03
   9    9.997       8.887       7.776       6.666       5.555       4.445       3.335       2.224       1.114      3.3313E-03
  10    9.997       8.887       7.776       6.666       5.555       4.445       3.335       2.224       1.114      3.3313E-03
1
              HEAD IN LAYER   2 AT END OF TIME STEP  54 IN STRESS PERIOD    3
  ---------------------------------------------------------------------------

            1           2           3           4           5           6           7           8           9          10
 ........................................................................................................................
   1    9.997       8.887       7.776       6.666       5.555       4.445       3.335       2.224       1.114      3.3313E-03
   2    9.997       8.887       7.776       6.666       5.555       4.445       3.335       2.224       1.114      3.3313E-03
   3    9.997       8.887       7.776       6.666       5.555       4.445       3.335       2.224       1.114      3.3313E-03
   4    9.997       8.887       7.776       6.666       5.555       4.445       3.335       2.224       1.114      3.3313E-03
   5    9.997       8.887       7.776       6.666       5.555       4.445       3.335       2.224       1.114      3.3313E-03
   6    9.997       8.887       7.776       6.666       5.555       4.445       3.335       2.224       1.114      3.3313E-03
   7    9.997       8.887       7.776       6.666       5.555       4.445       3.335       2.224       1.114      3.3313E-03
   8    9.997       8.887       7.776       6.666       5.555       4.445       3.335       2.224       1.114      3.3313E-03
   9    9.997       8.887       7.776       6.666       5.555       4.445       3.335       2.224       1.114      3.3313E-03
  10    9.997       8.887       7.776       6.666       5.555       4.445       3.335       2.224       1.114      3.3313E-03
1
              HEAD IN LAYER   3 AT END OF TIME STEP  54 IN STRESS PERIOD    3
  ---------------------------------------------------------------------------

            1           2           3           4           5           6           7           8           9          10
 ........................................................................................................................
   1    9.997       8.887       7.776       6.666       5.555       4.445       3.335       2.224       1.114      3.3313E-03
   2    9.997       8.887       7.776       6.666       5.555       4.445       3.335       2.224       1.114      3.3313E-03
   3    9.997       8.887       7.776       6.666       5.555       4.445       3.335       2.224       1.114      3.3313E-03
   4    9.997       8.887       7.776       6.666       5.555       4.445       3.335       2.224       1.114      3.3313E-03
   5    9.997       8.887       7.776       6.666       5.555       4.445       3.335       2.224       1.114      3.3313E-03
   6    9.997       8.887       7.776       6.666       5.555       4.445       3.335       2.224       1.114      3.3313E-03
   7    9.997       8.887       7.776       6.666       5.555       4.445       3.335       2.224       1.114      3.3313E-03
   8    9.997       8.887       7.776       6.666       5.555       4.445       3.335       2.224       1.114      3.3313E-03
   9    9.997       8.887       7.776       6.666       5.555       4.445       3.335       2.224       1.114      3.3313E-03
  10    9.997       8.887       7.776       6.666       5.555       4.445       3.335       2.224       1.114      3.3313E-03
1
              HEAD IN LAYER   4 AT END OF TIME STEP  54 IN STRESS PERIOD    3
  ---------------------------------------------------------------------------

            1           2           3           4           5           6           7           8           9          10
 ........................................................................................................................
   1    9.997       8.887       7.776       6.666       5.555       4.445       3.335       2.224       1.114      3.3313E-03
   2    9.997       8.887       7.776       6.666       5.555       4.445       3.335       2.224       1.114      3.3313E-03
   3    9.997       8.887       7.776       6.666       5.555       4.445       3.335       2.224       1.114      3.3313E-03
   4    9.997       8.887       7.776       6.666       5.555       4.445       3.335       2.224       1.114      3.3313E-03
   5    9.997       8.887       7.776       6.666       5.555       4.445       3.335       2.224       1.114      3.3313E-03
   6    9.997       8.887       7.776       6.666       5.555       4.445       3.335       2.224       1.114      3.3313E-03
   7    9.997       8.887       7.776       6.666       5.555       4.445       3.335       2.224       1.114      3.3313E-03
   8    9.997       8.887       7.776       6.666       5.555       4.445       3.335       2.224       1.114      3.3313E-03
   9    9.997       8.887       7.776       6.666       5.555       4.445       3.335       2.224       1.114      3.3313E-03
  10    9.997       8.887       7.776       6.666       5.555       4.445       3.335       2.224       1.114      3.3313E-03

 HEAD WILL BE SAVED ON UNIT   51 AT END OF TIME STEP   54, STRESS PERIOD    3

 DRAWDOWN WILL BE SAVED ON UNIT   52 AT END OF TIME STEP   54, STRESS PERIOD    3
1
  VOLUMETRIC BUDGET FOR ENTIRE MODEL AT END OF TIME STEP   54, STRESS PERIOD   3
  ------------------------------------------------------------------------------

     CUMULATIVE VOLUMES      L**3       RATES FOR THIS TIME STEP      L**3/T
     ------------------                 ------------------------

           IN:                                      IN:
           ---                                      ---
             STORAGE =       1.0477E-08               STORAGE =           0.0000
       CONSTANT HEAD =           0.0000         CONSTANT HEAD =           0.0000
               WELLS =           0.0000                 WELLS =           0.0000
     HEAD DEP BOUNDS =      103278.3828       HEAD DEP BOUNDS =         666.3123

            TOTAL IN =      103278.3828              TOTAL IN =         666.3123

          OUT:                                     OUT:
          ----                                     ----
             STORAGE =       5.2387E-08               STORAGE =           0.0000
       CONSTANT HEAD =           0.0000         CONSTANT HEAD =           0.0000
               WELLS =           0.0000                 WELLS =           0.0000
     HEAD DEP BOUNDS =      103270.0547       HEAD DEP BOUNDS =         666.2595

           TOTAL OUT =      103270.0547             TOTAL OUT =         666.2595

            IN - OUT =           8.3281              IN - OUT =       5.2795E-02

 PERCENT DISCREPANCY =           0.01     PERCENT DISCREPANCY =           0.01






         TIME SUMMARY AT END OF TIME STEP   54 IN STRESS PERIOD    3
                    SECONDS     MINUTES      HOURS       DAYS        YEARS
                    -----------------------------------------------------------
   TIME STEP LENGTH  86400.      1440.0      24.000      1.0000     2.73785E-03
 STRESS PERIOD TIME 4.66560E+06  77760.      1296.0      54.000     0.14784    
         TOTAL TIME 1.33920E+07 2.23200E+05  3720.0      155.00     0.42437    
1
 
 SOLVING FOR HEAD 

 OUTPUT CONTROL FOR STRESS PERIOD    3   TIME STEP   55
    SAVE HEAD FOR ALL LAYERS
    SAVE DRAWDOWN FOR ALL LAYERS
    SAVE BUDGET
    PRINT HEAD FOR ALL LAYERS
    PRINT BUDGET
 UBDSV1 SAVING "         STORAGE" ON UNIT  53 AT TIME STEP 55, STRESS PERIOD   3
 UBDSV2 SAVING "   CONSTANT HEAD" ON UNIT  53 AT TIME STEP 55, STRESS PERIOD   3
 UBDSV1 SAVING "FLOW RIGHT FACE " ON UNIT  53 AT TIME STEP 55, STRESS PERIOD   3
 UBDSV1 SAVING "FLOW FRONT FACE " ON UNIT  53 AT TIME STEP 55, STRESS PERIOD   3
 UBDSV1 SAVING "FLOW LOWER FACE " ON UNIT  53 AT TIME STEP 55, STRESS PERIOD   3
1
              HEAD IN LAYER   1 AT END OF TIME STEP  55 IN STRESS PERIOD    3
  ---------------------------------------------------------------------------

            1           2           3           4           5           6           7           8           9          10
 ........................................................................................................................
   1    9.997       8.887       7.776       6.666       5.555       4.445       3.335       2.224       1.114      3.3313E-03
   2    9.997       8.887       7.776       6.666       5.555       4.445       3.335       2.224       1.114      3.3313E-03
   3    9.997       8.887       7.776       6.666       5.555       4.445       3.335       2.224       1.114      3.3313E-03
   4    9.997       8.887       7.776       6.666       5.555       4.445       3.335       2.224       1.114      3.3313E-03
   5    9.997       8.887       7.776       6.666       5.555       4.445       3.335       2.224       1.114      3.3313E-03
   6    9.997       8.887       7.776       6.666       5.555       4.445       3.335       2.224       1.114      3.3313E-03
   7    9.997       8.887       7.776       6.666       5.555       4.445       3.335       2.224       1.114      3.3313E-03
   8    9.997       8.887       7.776       6.666       5.555       4.445       3.335       2.224       1.114      3.3313E-03
   9    9.997       8.887       7.776       6.666       5.555       4.445       3.335       2.224       1.114      3.3313E-03
  10    9.997       8.887       7.776       6.666       5.555       4.445       3.335       2.224       1.114      3.3313E-03
1
              HEAD IN LAYER   2 AT END OF TIME STEP  55 IN STRESS PERIOD    3
  ---------------------------------------------------------------------------

            1           2           3           4           5           6           7           8           9          10
 ........................................................................................................................
   1    9.997       8.887       7.776       6.666       5.555       4.445       3.335       2.224       1.114      3.3313E-03
   2    9.997       8.887       7.776       6.666       5.555       4.445       3.335       2.224       1.114      3.3313E-03
   3    9.997       8.887       7.776       6.666       5.555       4.445       3.335       2.224       1.114      3.3313E-03
   4    9.997       8.887       7.776       6.666       5.555       4.445       3.335       2.224       1.114      3.3313E-03
   5    9.997       8.887       7.776       6.666       5.555       4.445       3.335       2.224       1.114      3.3313E-03
   6    9.997       8.887       7.776       6.666       5.555       4.445       3.335       2.224       1.114      3.3313E-03
   7    9.997       8.887       7.776       6.666       5.555       4.445       3.335       2.224       1.114      3.3313E-03
   8    9.997       8.887       7.776       6.666       5.555       4.445       3.335       2.224       1.114      3.3313E-03
   9    9.997       8.887       7.776       6.666       5.555       4.445       3.335       2.224       1.114      3.3313E-03
  10    9.997       8.887       7.776       6.666       5.555       4.445       3.335       2.224       1.114      3.3313E-03
1
              HEAD IN LAYER   3 AT END OF TIME STEP  55 IN STRESS PERIOD    3
  ---------------------------------------------------------------------------

            1           2           3           4           5           6           7           8           9          10
 ........................................................................................................................
   1    9.997       8.887       7.776       6.666       5.555       4.445       3.335       2.224       1.114      3.3313E-03
   2    9.997       8.887       7.776       6.666       5.555       4.445       3.335       2.224       1.114      3.3313E-03
   3    9.997       8.887       7.776       6.666       5.555       4.445       3.335       2.224       1.114      3.3313E-03
   4    9.997       8.887       7.776       6.666       5.555       4.445       3.335       2.224       1.114      3.3313E-03
   5    9.997       8.887       7.776       6.666       5.555       4.445       3.335       2.224       1.114      3.3313E-03
   6    9.997       8.887       7.776       6.666       5.555       4.445       3.335       2.224       1.114      3.3313E-03
   7    9.997       8.887       7.776       6.666       5.555       4.445       3.335       2.224       1.114      3.3313E-03
   8    9.997       8.887       7.776       6.666       5.555       4.445       3.335       2.224       1.114      3.3313E-03
   9    9.997       8.887       7.776       6.666       5.555       4.445       3.335       2.224       1.114      3.3313E-03
  10    9.997       8.887       7.776       6.666       5.555       4.445       3.335       2.224       1.114      3.3313E-03
1
              HEAD IN LAYER   4 AT END OF TIME STEP  55 IN STRESS PERIOD    3
  ---------------------------------------------------------------------------

            1           2           3           4           5           6           7           8           9          10
 ........................................................................................................................
   1    9.997       8.887       7.776       6.666       5.555       4.445       3.335       2.224       1.114      3.3313E-03
   2    9.997       8.887       7.776       6.666       5.555       4.445       3.335       2.224       1.114      3.3313E-03
   3    9.997       8.887       7.776       6.666       5.555       4.445       3.335       2.224       1.114      3.3313E-03
   4    9.997       8.887       7.776       6.666       5.555       4.445       3.335       2.224       1.114      3.3313E-03
   5    9.997       8.887       7.776       6.666       5.555       4.445       3.335       2.224       1.114      3.3313E-03
   6    9.997       8.887       7.776       6.666       5.555       4.445       3.335       2.224       1.114      3.3313E-03
   7    9.997       8.887       7.776       6.666       5.555       4.445       3.335       2.224       1.114      3.3313E-03
   8    9.997       8.887       7.776       6.666       5.555       4.445       3.335       2.224       1.114      3.3313E-03
   9    9.997       8.887       7.776       6.666       5.555       4.445       3.335       2.224       1.114      3.3313E-03
  10    9.997       8.887       7.776       6.666       5.555       4.445       3.335       2.224       1.114      3.3313E-03

 HEAD WILL BE SAVED ON UNIT   51 AT END OF TIME STEP   55, STRESS PERIOD    3

 DRAWDOWN WILL BE SAVED ON UNIT   52 AT END OF TIME STEP   55, STRESS PERIOD    3
1
  VOLUMETRIC BUDGET FOR ENTIRE MODEL AT END OF TIME STEP   55, STRESS PERIOD   3
  ------------------------------------------------------------------------------

     CUMULATIVE VOLUMES      L**3       RATES FOR THIS TIME STEP      L**3/T
     ------------------                 ------------------------

           IN:                                      IN:
           ---                                      ---
             STORAGE =       1.0477E-08               STORAGE =           0.0000
       CONSTANT HEAD =           0.0000         CONSTANT HEAD =           0.0000
               WELLS =           0.0000                 WELLS =           0.0000
     HEAD DEP BOUNDS =      103944.6953       HEAD DEP BOUNDS =         666.3123

            TOTAL IN =      103944.6953              TOTAL IN =         666.3123

          OUT:                                     OUT:
          ----                                     ----
             STORAGE =       5.2387E-08               STORAGE =           0.0000
       CONSTANT HEAD =           0.0000         CONSTANT HEAD =           0.0000
               WELLS =           0.0000                 WELLS =           0.0000
     HEAD DEP BOUNDS =      103936.3125       HEAD DEP BOUNDS =         666.2595

           TOTAL OUT =      103936.3125             TOTAL OUT =         666.2595

            IN - OUT =           8.3828              IN - OUT =       5.2795E-02

 PERCENT DISCREPANCY =           0.01     PERCENT DISCREPANCY =           0.01






         TIME SUMMARY AT END OF TIME STEP   55 IN STRESS PERIOD    3
                    SECONDS     MINUTES      HOURS       DAYS        YEARS
                    -----------------------------------------------------------
   TIME STEP LENGTH  86400.      1440.0      24.000      1.0000     2.73785E-03
 STRESS PERIOD TIME 4.75200E+06  79200.      1320.0      55.000     0.15058    
         TOTAL TIME 1.34784E+07 2.24640E+05  3744.0      156.00     0.42710    
1
 
 SOLVING FOR HEAD 

 OUTPUT CONTROL FOR STRESS PERIOD    3   TIME STEP   56
    SAVE HEAD FOR ALL LAYERS
    SAVE DRAWDOWN FOR ALL LAYERS
    SAVE BUDGET
    PRINT HEAD FOR ALL LAYERS
    PRINT BUDGET
 UBDSV1 SAVING "         STORAGE" ON UNIT  53 AT TIME STEP 56, STRESS PERIOD   3
 UBDSV2 SAVING "   CONSTANT HEAD" ON UNIT  53 AT TIME STEP 56, STRESS PERIOD   3
 UBDSV1 SAVING "FLOW RIGHT FACE " ON UNIT  53 AT TIME STEP 56, STRESS PERIOD   3
 UBDSV1 SAVING "FLOW FRONT FACE " ON UNIT  53 AT TIME STEP 56, STRESS PERIOD   3
 UBDSV1 SAVING "FLOW LOWER FACE " ON UNIT  53 AT TIME STEP 56, STRESS PERIOD   3
1
              HEAD IN LAYER   1 AT END OF TIME STEP  56 IN STRESS PERIOD    3
  ---------------------------------------------------------------------------

            1           2           3           4           5           6           7           8           9          10
 ........................................................................................................................
   1    9.997       8.887       7.776       6.666       5.555       4.445       3.335       2.224       1.114      3.3313E-03
   2    9.997       8.887       7.776       6.666       5.555       4.445       3.335       2.224       1.114      3.3313E-03
   3    9.997       8.887       7.776       6.666       5.555       4.445       3.335       2.224       1.114      3.3313E-03
   4    9.997       8.887       7.776       6.666       5.555       4.445       3.335       2.224       1.114      3.3313E-03
   5    9.997       8.887       7.776       6.666       5.555       4.445       3.335       2.224       1.114      3.3313E-03
   6    9.997       8.887       7.776       6.666       5.555       4.445       3.335       2.224       1.114      3.3313E-03
   7    9.997       8.887       7.776       6.666       5.555       4.445       3.335       2.224       1.114      3.3313E-03
   8    9.997       8.887       7.776       6.666       5.555       4.445       3.335       2.224       1.114      3.3313E-03
   9    9.997       8.887       7.776       6.666       5.555       4.445       3.335       2.224       1.114      3.3313E-03
  10    9.997       8.887       7.776       6.666       5.555       4.445       3.335       2.224       1.114      3.3313E-03
1
              HEAD IN LAYER   2 AT END OF TIME STEP  56 IN STRESS PERIOD    3
  ---------------------------------------------------------------------------

            1           2           3           4           5           6           7           8           9          10
 ........................................................................................................................
   1    9.997       8.887       7.776       6.666       5.555       4.445       3.335       2.224       1.114      3.3313E-03
   2    9.997       8.887       7.776       6.666       5.555       4.445       3.335       2.224       1.114      3.3313E-03
   3    9.997       8.887       7.776       6.666       5.555       4.445       3.335       2.224       1.114      3.3313E-03
   4    9.997       8.887       7.776       6.666       5.555       4.445       3.335       2.224       1.114      3.3313E-03
   5    9.997       8.887       7.776       6.666       5.555       4.445       3.335       2.224       1.114      3.3313E-03
   6    9.997       8.887       7.776       6.666       5.555       4.445       3.335       2.224       1.114      3.3313E-03
   7    9.997       8.887       7.776       6.666       5.555       4.445       3.335       2.224       1.114      3.3313E-03
   8    9.997       8.887       7.776       6.666       5.555       4.445       3.335       2.224       1.114      3.3313E-03
   9    9.997       8.887       7.776       6.666       5.555       4.445       3.335       2.224       1.114      3.3313E-03
  10    9.997       8.887       7.776       6.666       5.555       4.445       3.335       2.224       1.114      3.3313E-03
1
              HEAD IN LAYER   3 AT END OF TIME STEP  56 IN STRESS PERIOD    3
  ---------------------------------------------------------------------------

            1           2           3           4           5           6           7           8           9          10
 ........................................................................................................................
   1    9.997       8.887       7.776       6.666       5.555       4.445       3.335       2.224       1.114      3.3313E-03
   2    9.997       8.887       7.776       6.666       5.555       4.445       3.335       2.224       1.114      3.3313E-03
   3    9.997       8.887       7.776       6.666       5.555       4.445       3.335       2.224       1.114      3.3313E-03
   4    9.997       8.887       7.776       6.666       5.555       4.445       3.335       2.224       1.114      3.3313E-03
   5    9.997       8.887       7.776       6.666       5.555       4.445       3.335       2.224       1.114      3.3313E-03
   6    9.997       8.887       7.776       6.666       5.555       4.445       3.335       2.224       1.114      3.3313E-03
   7    9.997       8.887       7.776       6.666       5.555       4.445       3.335       2.224       1.114      3.3313E-03
   8    9.997       8.887       7.776       6.666       5.555       4.445       3.335       2.224       1.114      3.3313E-03
   9    9.997       8.887       7.776       6.666       5.555       4.445       3.335       2.224       1.114      3.3313E-03
  10    9.997       8.887       7.776       6.666       5.555       4.445       3.335       2.224       1.114      3.3313E-03
1
              HEAD IN LAYER   4 AT END OF TIME STEP  56 IN STRESS PERIOD    3
  ---------------------------------------------------------------------------

            1           2           3           4           5           6           7           8           9          10
 ........................................................................................................................
   1    9.997       8.887       7.776       6.666       5.555       4.445       3.335       2.224       1.114      3.3313E-03
   2    9.997       8.887       7.776       6.666       5.555       4.445       3.335       2.224       1.114      3.3313E-03
   3    9.997       8.887       7.776       6.666       5.555       4.445       3.335       2.224       1.114      3.3313E-03
   4    9.997       8.887       7.776       6.666       5.555       4.445       3.335       2.224       1.114      3.3313E-03
   5    9.997       8.887       7.776       6.666       5.555       4.445       3.335       2.224       1.114      3.3313E-03
   6    9.997       8.887       7.776       6.666       5.555       4.445       3.335       2.224       1.114      3.3313E-03
   7    9.997       8.887       7.776       6.666       5.555       4.445       3.335       2.224       1.114      3.3313E-03
   8    9.997       8.887       7.776       6.666       5.555       4.445       3.335       2.224       1.114      3.3313E-03
   9    9.997       8.887       7.776       6.666       5.555       4.445       3.335       2.224       1.114      3.3313E-03
  10    9.997       8.887       7.776       6.666       5.555       4.445       3.335       2.224       1.114      3.3313E-03

 HEAD WILL BE SAVED ON UNIT   51 AT END OF TIME STEP   56, STRESS PERIOD    3

 DRAWDOWN WILL BE SAVED ON UNIT   52 AT END OF TIME STEP   56, STRESS PERIOD    3
1
  VOLUMETRIC BUDGET FOR ENTIRE MODEL AT END OF TIME STEP   56, STRESS PERIOD   3
  ------------------------------------------------------------------------------

     CUMULATIVE VOLUMES      L**3       RATES FOR THIS TIME STEP      L**3/T
     ------------------                 ------------------------

           IN:                                      IN:
           ---                                      ---
             STORAGE =       1.0477E-08               STORAGE =           0.0000
       CONSTANT HEAD =           0.0000         CONSTANT HEAD =           0.0000
               WELLS =           0.0000                 WELLS =           0.0000
     HEAD DEP BOUNDS =      104611.0078       HEAD DEP BOUNDS =         666.3123

            TOTAL IN =      104611.0078              TOTAL IN =         666.3123

          OUT:                                     OUT:
          ----                                     ----
             STORAGE =       5.2387E-08               STORAGE =           0.0000
       CONSTANT HEAD =           0.0000         CONSTANT HEAD =           0.0000
               WELLS =           0.0000                 WELLS =           0.0000
     HEAD DEP BOUNDS =      104602.5703       HEAD DEP BOUNDS =         666.2595

           TOTAL OUT =      104602.5703             TOTAL OUT =         666.2595

            IN - OUT =           8.4375              IN - OUT =       5.2795E-02

 PERCENT DISCREPANCY =           0.01     PERCENT DISCREPANCY =           0.01






         TIME SUMMARY AT END OF TIME STEP   56 IN STRESS PERIOD    3
                    SECONDS     MINUTES      HOURS       DAYS        YEARS
                    -----------------------------------------------------------
   TIME STEP LENGTH  86400.      1440.0      24.000      1.0000     2.73785E-03
 STRESS PERIOD TIME 4.83840E+06  80640.      1344.0      56.000     0.15332    
         TOTAL TIME 1.35648E+07 2.26080E+05  3768.0      157.00     0.42984    
1
 
 SOLVING FOR HEAD 

 OUTPUT CONTROL FOR STRESS PERIOD    3   TIME STEP   57
    SAVE HEAD FOR ALL LAYERS
    SAVE DRAWDOWN FOR ALL LAYERS
    SAVE BUDGET
    PRINT HEAD FOR ALL LAYERS
    PRINT BUDGET
 UBDSV1 SAVING "         STORAGE" ON UNIT  53 AT TIME STEP 57, STRESS PERIOD   3
 UBDSV2 SAVING "   CONSTANT HEAD" ON UNIT  53 AT TIME STEP 57, STRESS PERIOD   3
 UBDSV1 SAVING "FLOW RIGHT FACE " ON UNIT  53 AT TIME STEP 57, STRESS PERIOD   3
 UBDSV1 SAVING "FLOW FRONT FACE " ON UNIT  53 AT TIME STEP 57, STRESS PERIOD   3
 UBDSV1 SAVING "FLOW LOWER FACE " ON UNIT  53 AT TIME STEP 57, STRESS PERIOD   3
1
              HEAD IN LAYER   1 AT END OF TIME STEP  57 IN STRESS PERIOD    3
  ---------------------------------------------------------------------------

            1           2           3           4           5           6           7           8           9          10
 ........................................................................................................................
   1    9.997       8.887       7.776       6.666       5.555       4.445       3.335       2.224       1.114      3.3313E-03
   2    9.997       8.887       7.776       6.666       5.555       4.445       3.335       2.224       1.114      3.3313E-03
   3    9.997       8.887       7.776       6.666       5.555       4.445       3.335       2.224       1.114      3.3313E-03
   4    9.997       8.887       7.776       6.666       5.555       4.445       3.335       2.224       1.114      3.3313E-03
   5    9.997       8.887       7.776       6.666       5.555       4.445       3.335       2.224       1.114      3.3313E-03
   6    9.997       8.887       7.776       6.666       5.555       4.445       3.335       2.224       1.114      3.3313E-03
   7    9.997       8.887       7.776       6.666       5.555       4.445       3.335       2.224       1.114      3.3313E-03
   8    9.997       8.887       7.776       6.666       5.555       4.445       3.335       2.224       1.114      3.3313E-03
   9    9.997       8.887       7.776       6.666       5.555       4.445       3.335       2.224       1.114      3.3313E-03
  10    9.997       8.887       7.776       6.666       5.555       4.445       3.335       2.224       1.114      3.3313E-03
1
              HEAD IN LAYER   2 AT END OF TIME STEP  57 IN STRESS PERIOD    3
  ---------------------------------------------------------------------------

            1           2           3           4           5           6           7           8           9          10
 ........................................................................................................................
   1    9.997       8.887       7.776       6.666       5.555       4.445       3.335       2.224       1.114      3.3313E-03
   2    9.997       8.887       7.776       6.666       5.555       4.445       3.335       2.224       1.114      3.3313E-03
   3    9.997       8.887       7.776       6.666       5.555       4.445       3.335       2.224       1.114      3.3313E-03
   4    9.997       8.887       7.776       6.666       5.555       4.445       3.335       2.224       1.114      3.3313E-03
   5    9.997       8.887       7.776       6.666       5.555       4.445       3.335       2.224       1.114      3.3313E-03
   6    9.997       8.887       7.776       6.666       5.555       4.445       3.335       2.224       1.114      3.3313E-03
   7    9.997       8.887       7.776       6.666       5.555       4.445       3.335       2.224       1.114      3.3313E-03
   8    9.997       8.887       7.776       6.666       5.555       4.445       3.335       2.224       1.114      3.3313E-03
   9    9.997       8.887       7.776       6.666       5.555       4.445       3.335       2.224       1.114      3.3313E-03
  10    9.997       8.887       7.776       6.666       5.555       4.445       3.335       2.224       1.114      3.3313E-03
1
              HEAD IN LAYER   3 AT END OF TIME STEP  57 IN STRESS PERIOD    3
  ---------------------------------------------------------------------------

            1           2           3           4           5           6           7           8           9          10
 ........................................................................................................................
   1    9.997       8.887       7.776       6.666       5.555       4.445       3.335       2.224       1.114      3.3313E-03
   2    9.997       8.887       7.776       6.666       5.555       4.445       3.335       2.224       1.114      3.3313E-03
   3    9.997       8.887       7.776       6.666       5.555       4.445       3.335       2.224       1.114      3.3313E-03
   4    9.997       8.887       7.776       6.666       5.555       4.445       3.335       2.224       1.114      3.3313E-03
   5    9.997       8.887       7.776       6.666       5.555       4.445       3.335       2.224       1.114      3.3313E-03
   6    9.997       8.887       7.776       6.666       5.555       4.445       3.335       2.224       1.114      3.3313E-03
   7    9.997       8.887       7.776       6.666       5.555       4.445       3.335       2.224       1.114      3.3313E-03
   8    9.997       8.887       7.776       6.666       5.555       4.445       3.335       2.224       1.114      3.3313E-03
   9    9.997       8.887       7.776       6.666       5.555       4.445       3.335       2.224       1.114      3.3313E-03
  10    9.997       8.887       7.776       6.666       5.555       4.445       3.335       2.224       1.114      3.3313E-03
1
              HEAD IN LAYER   4 AT END OF TIME STEP  57 IN STRESS PERIOD    3
  ---------------------------------------------------------------------------

            1           2           3           4           5           6           7           8           9          10
 ........................................................................................................................
   1    9.997       8.887       7.776       6.666       5.555       4.445       3.335       2.224       1.114      3.3313E-03
   2    9.997       8.887       7.776       6.666       5.555       4.445       3.335       2.224       1.114      3.3313E-03
   3    9.997       8.887       7.776       6.666       5.555       4.445       3.335       2.224       1.114      3.3313E-03
   4    9.997       8.887       7.776       6.666       5.555       4.445       3.335       2.224       1.114      3.3313E-03
   5    9.997       8.887       7.776       6.666       5.555       4.445       3.335       2.224       1.114      3.3313E-03
   6    9.997       8.887       7.776       6.666       5.555       4.445       3.335       2.224       1.114      3.3313E-03
   7    9.997       8.887       7.776       6.666       5.555       4.445       3.335       2.224       1.114      3.3313E-03
   8    9.997       8.887       7.776       6.666       5.555       4.445       3.335       2.224       1.114      3.3313E-03
   9    9.997       8.887       7.776       6.666       5.555       4.445       3.335       2.224       1.114      3.3313E-03
  10    9.997       8.887       7.776       6.666       5.555       4.445       3.335       2.224       1.114      3.3313E-03

 HEAD WILL BE SAVED ON UNIT   51 AT END OF TIME STEP   57, STRESS PERIOD    3

 DRAWDOWN WILL BE SAVED ON UNIT   52 AT END OF TIME STEP   57, STRESS PERIOD    3
1
  VOLUMETRIC BUDGET FOR ENTIRE MODEL AT END OF TIME STEP   57, STRESS PERIOD   3
  ------------------------------------------------------------------------------

     CUMULATIVE VOLUMES      L**3       RATES FOR THIS TIME STEP      L**3/T
     ------------------                 ------------------------

           IN:                                      IN:
           ---                                      ---
             STORAGE =       1.0477E-08               STORAGE =           0.0000
       CONSTANT HEAD =           0.0000         CONSTANT HEAD =           0.0000
               WELLS =           0.0000                 WELLS =           0.0000
     HEAD DEP BOUNDS =      105277.3203       HEAD DEP BOUNDS =         666.3123

            TOTAL IN =      105277.3203              TOTAL IN =         666.3123

          OUT:                                     OUT:
          ----                                     ----
             STORAGE =       5.2387E-08               STORAGE =           0.0000
       CONSTANT HEAD =           0.0000         CONSTANT HEAD =           0.0000
               WELLS =           0.0000                 WELLS =           0.0000
     HEAD DEP BOUNDS =      105268.8281       HEAD DEP BOUNDS =         666.2595

           TOTAL OUT =      105268.8281             TOTAL OUT =         666.2595

            IN - OUT =           8.4922              IN - OUT =       5.2795E-02

 PERCENT DISCREPANCY =           0.01     PERCENT DISCREPANCY =           0.01






         TIME SUMMARY AT END OF TIME STEP   57 IN STRESS PERIOD    3
                    SECONDS     MINUTES      HOURS       DAYS        YEARS
                    -----------------------------------------------------------
   TIME STEP LENGTH  86400.      1440.0      24.000      1.0000     2.73785E-03
 STRESS PERIOD TIME 4.92480E+06  82080.      1368.0      57.000     0.15606    
         TOTAL TIME 1.36512E+07 2.27520E+05  3792.0      158.00     0.43258    
1
 
 SOLVING FOR HEAD 

 OUTPUT CONTROL FOR STRESS PERIOD    3   TIME STEP   58
    SAVE HEAD FOR ALL LAYERS
    SAVE DRAWDOWN FOR ALL LAYERS
    SAVE BUDGET
    PRINT HEAD FOR ALL LAYERS
    PRINT BUDGET
 UBDSV1 SAVING "         STORAGE" ON UNIT  53 AT TIME STEP 58, STRESS PERIOD   3
 UBDSV2 SAVING "   CONSTANT HEAD" ON UNIT  53 AT TIME STEP 58, STRESS PERIOD   3
 UBDSV1 SAVING "FLOW RIGHT FACE " ON UNIT  53 AT TIME STEP 58, STRESS PERIOD   3
 UBDSV1 SAVING "FLOW FRONT FACE " ON UNIT  53 AT TIME STEP 58, STRESS PERIOD   3
 UBDSV1 SAVING "FLOW LOWER FACE " ON UNIT  53 AT TIME STEP 58, STRESS PERIOD   3
1
              HEAD IN LAYER   1 AT END OF TIME STEP  58 IN STRESS PERIOD    3
  ---------------------------------------------------------------------------

            1           2           3           4           5           6           7           8           9          10
 ........................................................................................................................
   1    9.997       8.887       7.776       6.666       5.555       4.445       3.335       2.224       1.114      3.3313E-03
   2    9.997       8.887       7.776       6.666       5.555       4.445       3.335       2.224       1.114      3.3313E-03
   3    9.997       8.887       7.776       6.666       5.555       4.445       3.335       2.224       1.114      3.3313E-03
   4    9.997       8.887       7.776       6.666       5.555       4.445       3.335       2.224       1.114      3.3313E-03
   5    9.997       8.887       7.776       6.666       5.555       4.445       3.335       2.224       1.114      3.3313E-03
   6    9.997       8.887       7.776       6.666       5.555       4.445       3.335       2.224       1.114      3.3313E-03
   7    9.997       8.887       7.776       6.666       5.555       4.445       3.335       2.224       1.114      3.3313E-03
   8    9.997       8.887       7.776       6.666       5.555       4.445       3.335       2.224       1.114      3.3313E-03
   9    9.997       8.887       7.776       6.666       5.555       4.445       3.335       2.224       1.114      3.3313E-03
  10    9.997       8.887       7.776       6.666       5.555       4.445       3.335       2.224       1.114      3.3313E-03
1
              HEAD IN LAYER   2 AT END OF TIME STEP  58 IN STRESS PERIOD    3
  ---------------------------------------------------------------------------

            1           2           3           4           5           6           7           8           9          10
 ........................................................................................................................
   1    9.997       8.887       7.776       6.666       5.555       4.445       3.335       2.224       1.114      3.3313E-03
   2    9.997       8.887       7.776       6.666       5.555       4.445       3.335       2.224       1.114      3.3313E-03
   3    9.997       8.887       7.776       6.666       5.555       4.445       3.335       2.224       1.114      3.3313E-03
   4    9.997       8.887       7.776       6.666       5.555       4.445       3.335       2.224       1.114      3.3313E-03
   5    9.997       8.887       7.776       6.666       5.555       4.445       3.335       2.224       1.114      3.3313E-03
   6    9.997       8.887       7.776       6.666       5.555       4.445       3.335       2.224       1.114      3.3313E-03
   7    9.997       8.887       7.776       6.666       5.555       4.445       3.335       2.224       1.114      3.3313E-03
   8    9.997       8.887       7.776       6.666       5.555       4.445       3.335       2.224       1.114      3.3313E-03
   9    9.997       8.887       7.776       6.666       5.555       4.445       3.335       2.224       1.114      3.3313E-03
  10    9.997       8.887       7.776       6.666       5.555       4.445       3.335       2.224       1.114      3.3313E-03
1
              HEAD IN LAYER   3 AT END OF TIME STEP  58 IN STRESS PERIOD    3
  ---------------------------------------------------------------------------

            1           2           3           4           5           6           7           8           9          10
 ........................................................................................................................
   1    9.997       8.887       7.776       6.666       5.555       4.445       3.335       2.224       1.114      3.3313E-03
   2    9.997       8.887       7.776       6.666       5.555       4.445       3.335       2.224       1.114      3.3313E-03
   3    9.997       8.887       7.776       6.666       5.555       4.445       3.335       2.224       1.114      3.3313E-03
   4    9.997       8.887       7.776       6.666       5.555       4.445       3.335       2.224       1.114      3.3313E-03
   5    9.997       8.887       7.776       6.666       5.555       4.445       3.335       2.224       1.114      3.3313E-03
   6    9.997       8.887       7.776       6.666       5.555       4.445       3.335       2.224       1.114      3.3313E-03
   7    9.997       8.887       7.776       6.666       5.555       4.445       3.335       2.224       1.114      3.3313E-03
   8    9.997       8.887       7.776       6.666       5.555       4.445       3.335       2.224       1.114      3.3313E-03
   9    9.997       8.887       7.776       6.666       5.555       4.445       3.335       2.224       1.114      3.3313E-03
  10    9.997       8.887       7.776       6.666       5.555       4.445       3.335       2.224       1.114      3.3313E-03
1
              HEAD IN LAYER   4 AT END OF TIME STEP  58 IN STRESS PERIOD    3
  ---------------------------------------------------------------------------

            1           2           3           4           5           6           7           8           9          10
 ........................................................................................................................
   1    9.997       8.887       7.776       6.666       5.555       4.445       3.335       2.224       1.114      3.3313E-03
   2    9.997       8.887       7.776       6.666       5.555       4.445       3.335       2.224       1.114      3.3313E-03
   3    9.997       8.887       7.776       6.666       5.555       4.445       3.335       2.224       1.114      3.3313E-03
   4    9.997       8.887       7.776       6.666       5.555       4.445       3.335       2.224       1.114      3.3313E-03
   5    9.997       8.887       7.776       6.666       5.555       4.445       3.335       2.224       1.114      3.3313E-03
   6    9.997       8.887       7.776       6.666       5.555       4.445       3.335       2.224       1.114      3.3313E-03
   7    9.997       8.887       7.776       6.666       5.555       4.445       3.335       2.224       1.114      3.3313E-03
   8    9.997       8.887       7.776       6.666       5.555       4.445       3.335       2.224       1.114      3.3313E-03
   9    9.997       8.887       7.776       6.666       5.555       4.445       3.335       2.224       1.114      3.3313E-03
  10    9.997       8.887       7.776       6.666       5.555       4.445       3.335       2.224       1.114      3.3313E-03

 HEAD WILL BE SAVED ON UNIT   51 AT END OF TIME STEP   58, STRESS PERIOD    3

 DRAWDOWN WILL BE SAVED ON UNIT   52 AT END OF TIME STEP   58, STRESS PERIOD    3
1
  VOLUMETRIC BUDGET FOR ENTIRE MODEL AT END OF TIME STEP   58, STRESS PERIOD   3
  ------------------------------------------------------------------------------

     CUMULATIVE VOLUMES      L**3       RATES FOR THIS TIME STEP      L**3/T
     ------------------                 ------------------------

           IN:                                      IN:
           ---                                      ---
             STORAGE =       1.0477E-08               STORAGE =           0.0000
       CONSTANT HEAD =           0.0000         CONSTANT HEAD =           0.0000
               WELLS =           0.0000                 WELLS =           0.0000
     HEAD DEP BOUNDS =      105943.6328       HEAD DEP BOUNDS =         666.3123

            TOTAL IN =      105943.6328              TOTAL IN =         666.3123

          OUT:                                     OUT:
          ----                                     ----
             STORAGE =       5.2387E-08               STORAGE =           0.0000
       CONSTANT HEAD =           0.0000         CONSTANT HEAD =           0.0000
               WELLS =           0.0000                 WELLS =           0.0000
     HEAD DEP BOUNDS =      105935.0859       HEAD DEP BOUNDS =         666.2595

           TOTAL OUT =      105935.0859             TOTAL OUT =         666.2595

            IN - OUT =           8.5469              IN - OUT =       5.2795E-02

 PERCENT DISCREPANCY =           0.01     PERCENT DISCREPANCY =           0.01






         TIME SUMMARY AT END OF TIME STEP   58 IN STRESS PERIOD    3
                    SECONDS     MINUTES      HOURS       DAYS        YEARS
                    -----------------------------------------------------------
   TIME STEP LENGTH  86400.      1440.0      24.000      1.0000     2.73785E-03
 STRESS PERIOD TIME 5.01120E+06  83520.      1392.0      58.000     0.15880    
         TOTAL TIME 1.37376E+07 2.28960E+05  3816.0      159.00     0.43532    
1
 
 SOLVING FOR HEAD 

 OUTPUT CONTROL FOR STRESS PERIOD    3   TIME STEP   59
    SAVE HEAD FOR ALL LAYERS
    SAVE DRAWDOWN FOR ALL LAYERS
    SAVE BUDGET
    PRINT HEAD FOR ALL LAYERS
    PRINT BUDGET
 UBDSV1 SAVING "         STORAGE" ON UNIT  53 AT TIME STEP 59, STRESS PERIOD   3
 UBDSV2 SAVING "   CONSTANT HEAD" ON UNIT  53 AT TIME STEP 59, STRESS PERIOD   3
 UBDSV1 SAVING "FLOW RIGHT FACE " ON UNIT  53 AT TIME STEP 59, STRESS PERIOD   3
 UBDSV1 SAVING "FLOW FRONT FACE " ON UNIT  53 AT TIME STEP 59, STRESS PERIOD   3
 UBDSV1 SAVING "FLOW LOWER FACE " ON UNIT  53 AT TIME STEP 59, STRESS PERIOD   3
1
              HEAD IN LAYER   1 AT END OF TIME STEP  59 IN STRESS PERIOD    3
  ---------------------------------------------------------------------------

            1           2           3           4           5           6           7           8           9          10
 ........................................................................................................................
   1    9.997       8.887       7.776       6.666       5.555       4.445       3.335       2.224       1.114      3.3313E-03
   2    9.997       8.887       7.776       6.666       5.555       4.445       3.335       2.224       1.114      3.3313E-03
   3    9.997       8.887       7.776       6.666       5.555       4.445       3.335       2.224       1.114      3.3313E-03
   4    9.997       8.887       7.776       6.666       5.555       4.445       3.335       2.224       1.114      3.3313E-03
   5    9.997       8.887       7.776       6.666       5.555       4.445       3.335       2.224       1.114      3.3313E-03
   6    9.997       8.887       7.776       6.666       5.555       4.445       3.335       2.224       1.114      3.3313E-03
   7    9.997       8.887       7.776       6.666       5.555       4.445       3.335       2.224       1.114      3.3313E-03
   8    9.997       8.887       7.776       6.666       5.555       4.445       3.335       2.224       1.114      3.3313E-03
   9    9.997       8.887       7.776       6.666       5.555       4.445       3.335       2.224       1.114      3.3313E-03
  10    9.997       8.887       7.776       6.666       5.555       4.445       3.335       2.224       1.114      3.3313E-03
1
              HEAD IN LAYER   2 AT END OF TIME STEP  59 IN STRESS PERIOD    3
  ---------------------------------------------------------------------------

            1           2           3           4           5           6           7           8           9          10
 ........................................................................................................................
   1    9.997       8.887       7.776       6.666       5.555       4.445       3.335       2.224       1.114      3.3313E-03
   2    9.997       8.887       7.776       6.666       5.555       4.445       3.335       2.224       1.114      3.3313E-03
   3    9.997       8.887       7.776       6.666       5.555       4.445       3.335       2.224       1.114      3.3313E-03
   4    9.997       8.887       7.776       6.666       5.555       4.445       3.335       2.224       1.114      3.3313E-03
   5    9.997       8.887       7.776       6.666       5.555       4.445       3.335       2.224       1.114      3.3313E-03
   6    9.997       8.887       7.776       6.666       5.555       4.445       3.335       2.224       1.114      3.3313E-03
   7    9.997       8.887       7.776       6.666       5.555       4.445       3.335       2.224       1.114      3.3313E-03
   8    9.997       8.887       7.776       6.666       5.555       4.445       3.335       2.224       1.114      3.3313E-03
   9    9.997       8.887       7.776       6.666       5.555       4.445       3.335       2.224       1.114      3.3313E-03
  10    9.997       8.887       7.776       6.666       5.555       4.445       3.335       2.224       1.114      3.3313E-03
1
              HEAD IN LAYER   3 AT END OF TIME STEP  59 IN STRESS PERIOD    3
  ---------------------------------------------------------------------------

            1           2           3           4           5           6           7           8           9          10
 ........................................................................................................................
   1    9.997       8.887       7.776       6.666       5.555       4.445       3.335       2.224       1.114      3.3313E-03
   2    9.997       8.887       7.776       6.666       5.555       4.445       3.335       2.224       1.114      3.3313E-03
   3    9.997       8.887       7.776       6.666       5.555       4.445       3.335       2.224       1.114      3.3313E-03
   4    9.997       8.887       7.776       6.666       5.555       4.445       3.335       2.224       1.114      3.3313E-03
   5    9.997       8.887       7.776       6.666       5.555       4.445       3.335       2.224       1.114      3.3313E-03
   6    9.997       8.887       7.776       6.666       5.555       4.445       3.335       2.224       1.114      3.3313E-03
   7    9.997       8.887       7.776       6.666       5.555       4.445       3.335       2.224       1.114      3.3313E-03
   8    9.997       8.887       7.776       6.666       5.555       4.445       3.335       2.224       1.114      3.3313E-03
   9    9.997       8.887       7.776       6.666       5.555       4.445       3.335       2.224       1.114      3.3313E-03
  10    9.997       8.887       7.776       6.666       5.555       4.445       3.335       2.224       1.114      3.3313E-03
1
              HEAD IN LAYER   4 AT END OF TIME STEP  59 IN STRESS PERIOD    3
  ---------------------------------------------------------------------------

            1           2           3           4           5           6           7           8           9          10
 ........................................................................................................................
   1    9.997       8.887       7.776       6.666       5.555       4.445       3.335       2.224       1.114      3.3313E-03
   2    9.997       8.887       7.776       6.666       5.555       4.445       3.335       2.224       1.114      3.3313E-03
   3    9.997       8.887       7.776       6.666       5.555       4.445       3.335       2.224       1.114      3.3313E-03
   4    9.997       8.887       7.776       6.666       5.555       4.445       3.335       2.224       1.114      3.3313E-03
   5    9.997       8.887       7.776       6.666       5.555       4.445       3.335       2.224       1.114      3.3313E-03
   6    9.997       8.887       7.776       6.666       5.555       4.445       3.335       2.224       1.114      3.3313E-03
   7    9.997       8.887       7.776       6.666       5.555       4.445       3.335       2.224       1.114      3.3313E-03
   8    9.997       8.887       7.776       6.666       5.555       4.445       3.335       2.224       1.114      3.3313E-03
   9    9.997       8.887       7.776       6.666       5.555       4.445       3.335       2.224       1.114      3.3313E-03
  10    9.997       8.887       7.776       6.666       5.555       4.445       3.335       2.224       1.114      3.3313E-03

 HEAD WILL BE SAVED ON UNIT   51 AT END OF TIME STEP   59, STRESS PERIOD    3

 DRAWDOWN WILL BE SAVED ON UNIT   52 AT END OF TIME STEP   59, STRESS PERIOD    3
1
  VOLUMETRIC BUDGET FOR ENTIRE MODEL AT END OF TIME STEP   59, STRESS PERIOD   3
  ------------------------------------------------------------------------------

     CUMULATIVE VOLUMES      L**3       RATES FOR THIS TIME STEP      L**3/T
     ------------------                 ------------------------

           IN:                                      IN:
           ---                                      ---
             STORAGE =       1.0477E-08               STORAGE =           0.0000
       CONSTANT HEAD =           0.0000         CONSTANT HEAD =           0.0000
               WELLS =           0.0000                 WELLS =           0.0000
     HEAD DEP BOUNDS =      106609.9453       HEAD DEP BOUNDS =         666.3123

            TOTAL IN =      106609.9453              TOTAL IN =         666.3123

          OUT:                                     OUT:
          ----                                     ----
             STORAGE =       5.2387E-08               STORAGE =           0.0000
       CONSTANT HEAD =           0.0000         CONSTANT HEAD =           0.0000
               WELLS =           0.0000                 WELLS =           0.0000
     HEAD DEP BOUNDS =      106601.3438       HEAD DEP BOUNDS =         666.2595

           TOTAL OUT =      106601.3438             TOTAL OUT =         666.2595

            IN - OUT =           8.6016              IN - OUT =       5.2795E-02

 PERCENT DISCREPANCY =           0.01     PERCENT DISCREPANCY =           0.01






         TIME SUMMARY AT END OF TIME STEP   59 IN STRESS PERIOD    3
                    SECONDS     MINUTES      HOURS       DAYS        YEARS
                    -----------------------------------------------------------
   TIME STEP LENGTH  86400.      1440.0      24.000      1.0000     2.73785E-03
 STRESS PERIOD TIME 5.09760E+06  84960.      1416.0      59.000     0.16153    
         TOTAL TIME 1.38240E+07 2.30400E+05  3840.0      160.00     0.43806    
1
 
 SOLVING FOR HEAD 

 OUTPUT CONTROL FOR STRESS PERIOD    3   TIME STEP   60
    SAVE HEAD FOR ALL LAYERS
    SAVE DRAWDOWN FOR ALL LAYERS
    SAVE BUDGET
    PRINT HEAD FOR ALL LAYERS
    PRINT BUDGET
 UBDSV1 SAVING "         STORAGE" ON UNIT  53 AT TIME STEP 60, STRESS PERIOD   3
 UBDSV2 SAVING "   CONSTANT HEAD" ON UNIT  53 AT TIME STEP 60, STRESS PERIOD   3
 UBDSV1 SAVING "FLOW RIGHT FACE " ON UNIT  53 AT TIME STEP 60, STRESS PERIOD   3
 UBDSV1 SAVING "FLOW FRONT FACE " ON UNIT  53 AT TIME STEP 60, STRESS PERIOD   3
 UBDSV1 SAVING "FLOW LOWER FACE " ON UNIT  53 AT TIME STEP 60, STRESS PERIOD   3
1
              HEAD IN LAYER   1 AT END OF TIME STEP  60 IN STRESS PERIOD    3
  ---------------------------------------------------------------------------

            1           2           3           4           5           6           7           8           9          10
 ........................................................................................................................
   1    9.997       8.887       7.776       6.666       5.555       4.445       3.335       2.224       1.114      3.3313E-03
   2    9.997       8.887       7.776       6.666       5.555       4.445       3.335       2.224       1.114      3.3313E-03
   3    9.997       8.887       7.776       6.666       5.555       4.445       3.335       2.224       1.114      3.3313E-03
   4    9.997       8.887       7.776       6.666       5.555       4.445       3.335       2.224       1.114      3.3313E-03
   5    9.997       8.887       7.776       6.666       5.555       4.445       3.335       2.224       1.114      3.3313E-03
   6    9.997       8.887       7.776       6.666       5.555       4.445       3.335       2.224       1.114      3.3313E-03
   7    9.997       8.887       7.776       6.666       5.555       4.445       3.335       2.224       1.114      3.3313E-03
   8    9.997       8.887       7.776       6.666       5.555       4.445       3.335       2.224       1.114      3.3313E-03
   9    9.997       8.887       7.776       6.666       5.555       4.445       3.335       2.224       1.114      3.3313E-03
  10    9.997       8.887       7.776       6.666       5.555       4.445       3.335       2.224       1.114      3.3313E-03
1
              HEAD IN LAYER   2 AT END OF TIME STEP  60 IN STRESS PERIOD    3
  ---------------------------------------------------------------------------

            1           2           3           4           5           6           7           8           9          10
 ........................................................................................................................
   1    9.997       8.887       7.776       6.666       5.555       4.445       3.335       2.224       1.114      3.3313E-03
   2    9.997       8.887       7.776       6.666       5.555       4.445       3.335       2.224       1.114      3.3313E-03
   3    9.997       8.887       7.776       6.666       5.555       4.445       3.335       2.224       1.114      3.3313E-03
   4    9.997       8.887       7.776       6.666       5.555       4.445       3.335       2.224       1.114      3.3313E-03
   5    9.997       8.887       7.776       6.666       5.555       4.445       3.335       2.224       1.114      3.3313E-03
   6    9.997       8.887       7.776       6.666       5.555       4.445       3.335       2.224       1.114      3.3313E-03
   7    9.997       8.887       7.776       6.666       5.555       4.445       3.335       2.224       1.114      3.3313E-03
   8    9.997       8.887       7.776       6.666       5.555       4.445       3.335       2.224       1.114      3.3313E-03
   9    9.997       8.887       7.776       6.666       5.555       4.445       3.335       2.224       1.114      3.3313E-03
  10    9.997       8.887       7.776       6.666       5.555       4.445       3.335       2.224       1.114      3.3313E-03
1
              HEAD IN LAYER   3 AT END OF TIME STEP  60 IN STRESS PERIOD    3
  ---------------------------------------------------------------------------

            1           2           3           4           5           6           7           8           9          10
 ........................................................................................................................
   1    9.997       8.887       7.776       6.666       5.555       4.445       3.335       2.224       1.114      3.3313E-03
   2    9.997       8.887       7.776       6.666       5.555       4.445       3.335       2.224       1.114      3.3313E-03
   3    9.997       8.887       7.776       6.666       5.555       4.445       3.335       2.224       1.114      3.3313E-03
   4    9.997       8.887       7.776       6.666       5.555       4.445       3.335       2.224       1.114      3.3313E-03
   5    9.997       8.887       7.776       6.666       5.555       4.445       3.335       2.224       1.114      3.3313E-03
   6    9.997       8.887       7.776       6.666       5.555       4.445       3.335       2.224       1.114      3.3313E-03
   7    9.997       8.887       7.776       6.666       5.555       4.445       3.335       2.224       1.114      3.3313E-03
   8    9.997       8.887       7.776       6.666       5.555       4.445       3.335       2.224       1.114      3.3313E-03
   9    9.997       8.887       7.776       6.666       5.555       4.445       3.335       2.224       1.114      3.3313E-03
  10    9.997       8.887       7.776       6.666       5.555       4.445       3.335       2.224       1.114      3.3313E-03
1
              HEAD IN LAYER   4 AT END OF TIME STEP  60 IN STRESS PERIOD    3
  ---------------------------------------------------------------------------

            1           2           3           4           5           6           7           8           9          10
 ........................................................................................................................
   1    9.997       8.887       7.776       6.666       5.555       4.445       3.335       2.224       1.114      3.3313E-03
   2    9.997       8.887       7.776       6.666       5.555       4.445       3.335       2.224       1.114      3.3313E-03
   3    9.997       8.887       7.776       6.666       5.555       4.445       3.335       2.224       1.114      3.3313E-03
   4    9.997       8.887       7.776       6.666       5.555       4.445       3.335       2.224       1.114      3.3313E-03
   5    9.997       8.887       7.776       6.666       5.555       4.445       3.335       2.224       1.114      3.3313E-03
   6    9.997       8.887       7.776       6.666       5.555       4.445       3.335       2.224       1.114      3.3313E-03
   7    9.997       8.887       7.776       6.666       5.555       4.445       3.335       2.224       1.114      3.3313E-03
   8    9.997       8.887       7.776       6.666       5.555       4.445       3.335       2.224       1.114      3.3313E-03
   9    9.997       8.887       7.776       6.666       5.555       4.445       3.335       2.224       1.114      3.3313E-03
  10    9.997       8.887       7.776       6.666       5.555       4.445       3.335       2.224       1.114      3.3313E-03

 HEAD WILL BE SAVED ON UNIT   51 AT END OF TIME STEP   60, STRESS PERIOD    3

 DRAWDOWN WILL BE SAVED ON UNIT   52 AT END OF TIME STEP   60, STRESS PERIOD    3
1
  VOLUMETRIC BUDGET FOR ENTIRE MODEL AT END OF TIME STEP   60, STRESS PERIOD   3
  ------------------------------------------------------------------------------

     CUMULATIVE VOLUMES      L**3       RATES FOR THIS TIME STEP      L**3/T
     ------------------                 ------------------------

           IN:                                      IN:
           ---                                      ---
             STORAGE =       1.0477E-08               STORAGE =           0.0000
       CONSTANT HEAD =           0.0000         CONSTANT HEAD =           0.0000
               WELLS =           0.0000                 WELLS =           0.0000
     HEAD DEP BOUNDS =      107276.2578       HEAD DEP BOUNDS =         666.3123

            TOTAL IN =      107276.2578              TOTAL IN =         666.3123

          OUT:                                     OUT:
          ----                                     ----
             STORAGE =       5.2387E-08               STORAGE =           0.0000
       CONSTANT HEAD =           0.0000         CONSTANT HEAD =           0.0000
               WELLS =           0.0000                 WELLS =           0.0000
     HEAD DEP BOUNDS =      107267.6016       HEAD DEP BOUNDS =         666.2595

           TOTAL OUT =      107267.6016             TOTAL OUT =         666.2595

            IN - OUT =           8.6562              IN - OUT =       5.2795E-02

 PERCENT DISCREPANCY =           0.01     PERCENT DISCREPANCY =           0.01






         TIME SUMMARY AT END OF TIME STEP   60 IN STRESS PERIOD    3
                    SECONDS     MINUTES      HOURS       DAYS        YEARS
                    -----------------------------------------------------------
   TIME STEP LENGTH  86400.      1440.0      24.000      1.0000     2.73785E-03
 STRESS PERIOD TIME 5.18400E+06  86400.      1440.0      60.000     0.16427    
         TOTAL TIME 1.39104E+07 2.31840E+05  3864.0      161.00     0.44079    
1
 
 SOLVING FOR HEAD 

 OUTPUT CONTROL FOR STRESS PERIOD    3   TIME STEP   61
    SAVE HEAD FOR ALL LAYERS
    SAVE DRAWDOWN FOR ALL LAYERS
    SAVE BUDGET
    PRINT HEAD FOR ALL LAYERS
    PRINT BUDGET
 UBDSV1 SAVING "         STORAGE" ON UNIT  53 AT TIME STEP 61, STRESS PERIOD   3
 UBDSV2 SAVING "   CONSTANT HEAD" ON UNIT  53 AT TIME STEP 61, STRESS PERIOD   3
 UBDSV1 SAVING "FLOW RIGHT FACE " ON UNIT  53 AT TIME STEP 61, STRESS PERIOD   3
 UBDSV1 SAVING "FLOW FRONT FACE " ON UNIT  53 AT TIME STEP 61, STRESS PERIOD   3
 UBDSV1 SAVING "FLOW LOWER FACE " ON UNIT  53 AT TIME STEP 61, STRESS PERIOD   3
1
              HEAD IN LAYER   1 AT END OF TIME STEP  61 IN STRESS PERIOD    3
  ---------------------------------------------------------------------------

            1           2           3           4           5           6           7           8           9          10
 ........................................................................................................................
   1    9.997       8.887       7.776       6.666       5.555       4.445       3.335       2.224       1.114      3.3313E-03
   2    9.997       8.887       7.776       6.666       5.555       4.445       3.335       2.224       1.114      3.3313E-03
   3    9.997       8.887       7.776       6.666       5.555       4.445       3.335       2.224       1.114      3.3313E-03
   4    9.997       8.887       7.776       6.666       5.555       4.445       3.335       2.224       1.114      3.3313E-03
   5    9.997       8.887       7.776       6.666       5.555       4.445       3.335       2.224       1.114      3.3313E-03
   6    9.997       8.887       7.776       6.666       5.555       4.445       3.335       2.224       1.114      3.3313E-03
   7    9.997       8.887       7.776       6.666       5.555       4.445       3.335       2.224       1.114      3.3313E-03
   8    9.997       8.887       7.776       6.666       5.555       4.445       3.335       2.224       1.114      3.3313E-03
   9    9.997       8.887       7.776       6.666       5.555       4.445       3.335       2.224       1.114      3.3313E-03
  10    9.997       8.887       7.776       6.666       5.555       4.445       3.335       2.224       1.114      3.3313E-03
1
              HEAD IN LAYER   2 AT END OF TIME STEP  61 IN STRESS PERIOD    3
  ---------------------------------------------------------------------------

            1           2           3           4           5           6           7           8           9          10
 ........................................................................................................................
   1    9.997       8.887       7.776       6.666       5.555       4.445       3.335       2.224       1.114      3.3313E-03
   2    9.997       8.887       7.776       6.666       5.555       4.445       3.335       2.224       1.114      3.3313E-03
   3    9.997       8.887       7.776       6.666       5.555       4.445       3.335       2.224       1.114      3.3313E-03
   4    9.997       8.887       7.776       6.666       5.555       4.445       3.335       2.224       1.114      3.3313E-03
   5    9.997       8.887       7.776       6.666       5.555       4.445       3.335       2.224       1.114      3.3313E-03
   6    9.997       8.887       7.776       6.666       5.555       4.445       3.335       2.224       1.114      3.3313E-03
   7    9.997       8.887       7.776       6.666       5.555       4.445       3.335       2.224       1.114      3.3313E-03
   8    9.997       8.887       7.776       6.666       5.555       4.445       3.335       2.224       1.114      3.3313E-03
   9    9.997       8.887       7.776       6.666       5.555       4.445       3.335       2.224       1.114      3.3313E-03
  10    9.997       8.887       7.776       6.666       5.555       4.445       3.335       2.224       1.114      3.3313E-03
1
              HEAD IN LAYER   3 AT END OF TIME STEP  61 IN STRESS PERIOD    3
  ---------------------------------------------------------------------------

            1           2           3           4           5           6           7           8           9          10
 ........................................................................................................................
   1    9.997       8.887       7.776       6.666       5.555       4.445       3.335       2.224       1.114      3.3313E-03
   2    9.997       8.887       7.776       6.666       5.555       4.445       3.335       2.224       1.114      3.3313E-03
   3    9.997       8.887       7.776       6.666       5.555       4.445       3.335       2.224       1.114      3.3313E-03
   4    9.997       8.887       7.776       6.666       5.555       4.445       3.335       2.224       1.114      3.3313E-03
   5    9.997       8.887       7.776       6.666       5.555       4.445       3.335       2.224       1.114      3.3313E-03
   6    9.997       8.887       7.776       6.666       5.555       4.445       3.335       2.224       1.114      3.3313E-03
   7    9.997       8.887       7.776       6.666       5.555       4.445       3.335       2.224       1.114      3.3313E-03
   8    9.997       8.887       7.776       6.666       5.555       4.445       3.335       2.224       1.114      3.3313E-03
   9    9.997       8.887       7.776       6.666       5.555       4.445       3.335       2.224       1.114      3.3313E-03
  10    9.997       8.887       7.776       6.666       5.555       4.445       3.335       2.224       1.114      3.3313E-03
1
              HEAD IN LAYER   4 AT END OF TIME STEP  61 IN STRESS PERIOD    3
  ---------------------------------------------------------------------------

            1           2           3           4           5           6           7           8           9          10
 ........................................................................................................................
   1    9.997       8.887       7.776       6.666       5.555       4.445       3.335       2.224       1.114      3.3313E-03
   2    9.997       8.887       7.776       6.666       5.555       4.445       3.335       2.224       1.114      3.3313E-03
   3    9.997       8.887       7.776       6.666       5.555       4.445       3.335       2.224       1.114      3.3313E-03
   4    9.997       8.887       7.776       6.666       5.555       4.445       3.335       2.224       1.114      3.3313E-03
   5    9.997       8.887       7.776       6.666       5.555       4.445       3.335       2.224       1.114      3.3313E-03
   6    9.997       8.887       7.776       6.666       5.555       4.445       3.335       2.224       1.114      3.3313E-03
   7    9.997       8.887       7.776       6.666       5.555       4.445       3.335       2.224       1.114      3.3313E-03
   8    9.997       8.887       7.776       6.666       5.555       4.445       3.335       2.224       1.114      3.3313E-03
   9    9.997       8.887       7.776       6.666       5.555       4.445       3.335       2.224       1.114      3.3313E-03
  10    9.997       8.887       7.776       6.666       5.555       4.445       3.335       2.224       1.114      3.3313E-03

 HEAD WILL BE SAVED ON UNIT   51 AT END OF TIME STEP   61, STRESS PERIOD    3

 DRAWDOWN WILL BE SAVED ON UNIT   52 AT END OF TIME STEP   61, STRESS PERIOD    3
1
  VOLUMETRIC BUDGET FOR ENTIRE MODEL AT END OF TIME STEP   61, STRESS PERIOD   3
  ------------------------------------------------------------------------------

     CUMULATIVE VOLUMES      L**3       RATES FOR THIS TIME STEP      L**3/T
     ------------------                 ------------------------

           IN:                                      IN:
           ---                                      ---
             STORAGE =       1.0477E-08               STORAGE =           0.0000
       CONSTANT HEAD =           0.0000         CONSTANT HEAD =           0.0000
               WELLS =           0.0000                 WELLS =           0.0000
     HEAD DEP BOUNDS =      107942.5703       HEAD DEP BOUNDS =         666.3123

            TOTAL IN =      107942.5703              TOTAL IN =         666.3123

          OUT:                                     OUT:
          ----                                     ----
             STORAGE =       5.2387E-08               STORAGE =           0.0000
       CONSTANT HEAD =           0.0000         CONSTANT HEAD =           0.0000
               WELLS =           0.0000                 WELLS =           0.0000
     HEAD DEP BOUNDS =      107933.8594       HEAD DEP BOUNDS =         666.2595

           TOTAL OUT =      107933.8594             TOTAL OUT =         666.2595

            IN - OUT =           8.7109              IN - OUT =       5.2795E-02

 PERCENT DISCREPANCY =           0.01     PERCENT DISCREPANCY =           0.01






         TIME SUMMARY AT END OF TIME STEP   61 IN STRESS PERIOD    3
                    SECONDS     MINUTES      HOURS       DAYS        YEARS
                    -----------------------------------------------------------
   TIME STEP LENGTH  86400.      1440.0      24.000      1.0000     2.73785E-03
 STRESS PERIOD TIME 5.27040E+06  87840.      1464.0      61.000     0.16701    
         TOTAL TIME 1.39968E+07 2.33280E+05  3888.0      162.00     0.44353    
1
 
 SOLVING FOR HEAD 

 OUTPUT CONTROL FOR STRESS PERIOD    3   TIME STEP   62
    SAVE HEAD FOR ALL LAYERS
    SAVE DRAWDOWN FOR ALL LAYERS
    SAVE BUDGET
    PRINT HEAD FOR ALL LAYERS
    PRINT BUDGET
 UBDSV1 SAVING "         STORAGE" ON UNIT  53 AT TIME STEP 62, STRESS PERIOD   3
 UBDSV2 SAVING "   CONSTANT HEAD" ON UNIT  53 AT TIME STEP 62, STRESS PERIOD   3
 UBDSV1 SAVING "FLOW RIGHT FACE " ON UNIT  53 AT TIME STEP 62, STRESS PERIOD   3
 UBDSV1 SAVING "FLOW FRONT FACE " ON UNIT  53 AT TIME STEP 62, STRESS PERIOD   3
 UBDSV1 SAVING "FLOW LOWER FACE " ON UNIT  53 AT TIME STEP 62, STRESS PERIOD   3
1
              HEAD IN LAYER   1 AT END OF TIME STEP  62 IN STRESS PERIOD    3
  ---------------------------------------------------------------------------

            1           2           3           4           5           6           7           8           9          10
 ........................................................................................................................
   1    9.997       8.887       7.776       6.666       5.555       4.445       3.335       2.224       1.114      3.3313E-03
   2    9.997       8.887       7.776       6.666       5.555       4.445       3.335       2.224       1.114      3.3313E-03
   3    9.997       8.887       7.776       6.666       5.555       4.445       3.335       2.224       1.114      3.3313E-03
   4    9.997       8.887       7.776       6.666       5.555       4.445       3.335       2.224       1.114      3.3313E-03
   5    9.997       8.887       7.776       6.666       5.555       4.445       3.335       2.224       1.114      3.3313E-03
   6    9.997       8.887       7.776       6.666       5.555       4.445       3.335       2.224       1.114      3.3313E-03
   7    9.997       8.887       7.776       6.666       5.555       4.445       3.335       2.224       1.114      3.3313E-03
   8    9.997       8.887       7.776       6.666       5.555       4.445       3.335       2.224       1.114      3.3313E-03
   9    9.997       8.887       7.776       6.666       5.555       4.445       3.335       2.224       1.114      3.3313E-03
  10    9.997       8.887       7.776       6.666       5.555       4.445       3.335       2.224       1.114      3.3313E-03
1
              HEAD IN LAYER   2 AT END OF TIME STEP  62 IN STRESS PERIOD    3
  ---------------------------------------------------------------------------

            1           2           3           4           5           6           7           8           9          10
 ........................................................................................................................
   1    9.997       8.887       7.776       6.666       5.555       4.445       3.335       2.224       1.114      3.3313E-03
   2    9.997       8.887       7.776       6.666       5.555       4.445       3.335       2.224       1.114      3.3313E-03
   3    9.997       8.887       7.776       6.666       5.555       4.445       3.335       2.224       1.114      3.3313E-03
   4    9.997       8.887       7.776       6.666       5.555       4.445       3.335       2.224       1.114      3.3313E-03
   5    9.997       8.887       7.776       6.666       5.555       4.445       3.335       2.224       1.114      3.3313E-03
   6    9.997       8.887       7.776       6.666       5.555       4.445       3.335       2.224       1.114      3.3313E-03
   7    9.997       8.887       7.776       6.666       5.555       4.445       3.335       2.224       1.114      3.3313E-03
   8    9.997       8.887       7.776       6.666       5.555       4.445       3.335       2.224       1.114      3.3313E-03
   9    9.997       8.887       7.776       6.666       5.555       4.445       3.335       2.224       1.114      3.3313E-03
  10    9.997       8.887       7.776       6.666       5.555       4.445       3.335       2.224       1.114      3.3313E-03
1
              HEAD IN LAYER   3 AT END OF TIME STEP  62 IN STRESS PERIOD    3
  ---------------------------------------------------------------------------

            1           2           3           4           5           6           7           8           9          10
 ........................................................................................................................
   1    9.997       8.887       7.776       6.666       5.555       4.445       3.335       2.224       1.114      3.3313E-03
   2    9.997       8.887       7.776       6.666       5.555       4.445       3.335       2.224       1.114      3.3313E-03
   3    9.997       8.887       7.776       6.666       5.555       4.445       3.335       2.224       1.114      3.3313E-03
   4    9.997       8.887       7.776       6.666       5.555       4.445       3.335       2.224       1.114      3.3313E-03
   5    9.997       8.887       7.776       6.666       5.555       4.445       3.335       2.224       1.114      3.3313E-03
   6    9.997       8.887       7.776       6.666       5.555       4.445       3.335       2.224       1.114      3.3313E-03
   7    9.997       8.887       7.776       6.666       5.555       4.445       3.335       2.224       1.114      3.3313E-03
   8    9.997       8.887       7.776       6.666       5.555       4.445       3.335       2.224       1.114      3.3313E-03
   9    9.997       8.887       7.776       6.666       5.555       4.445       3.335       2.224       1.114      3.3313E-03
  10    9.997       8.887       7.776       6.666       5.555       4.445       3.335       2.224       1.114      3.3313E-03
1
              HEAD IN LAYER   4 AT END OF TIME STEP  62 IN STRESS PERIOD    3
  ---------------------------------------------------------------------------

            1           2           3           4           5           6           7           8           9          10
 ........................................................................................................................
   1    9.997       8.887       7.776       6.666       5.555       4.445       3.335       2.224       1.114      3.3313E-03
   2    9.997       8.887       7.776       6.666       5.555       4.445       3.335       2.224       1.114      3.3313E-03
   3    9.997       8.887       7.776       6.666       5.555       4.445       3.335       2.224       1.114      3.3313E-03
   4    9.997       8.887       7.776       6.666       5.555       4.445       3.335       2.224       1.114      3.3313E-03
   5    9.997       8.887       7.776       6.666       5.555       4.445       3.335       2.224       1.114      3.3313E-03
   6    9.997       8.887       7.776       6.666       5.555       4.445       3.335       2.224       1.114      3.3313E-03
   7    9.997       8.887       7.776       6.666       5.555       4.445       3.335       2.224       1.114      3.3313E-03
   8    9.997       8.887       7.776       6.666       5.555       4.445       3.335       2.224       1.114      3.3313E-03
   9    9.997       8.887       7.776       6.666       5.555       4.445       3.335       2.224       1.114      3.3313E-03
  10    9.997       8.887       7.776       6.666       5.555       4.445       3.335       2.224       1.114      3.3313E-03

 HEAD WILL BE SAVED ON UNIT   51 AT END OF TIME STEP   62, STRESS PERIOD    3

 DRAWDOWN WILL BE SAVED ON UNIT   52 AT END OF TIME STEP   62, STRESS PERIOD    3
1
  VOLUMETRIC BUDGET FOR ENTIRE MODEL AT END OF TIME STEP   62, STRESS PERIOD   3
  ------------------------------------------------------------------------------

     CUMULATIVE VOLUMES      L**3       RATES FOR THIS TIME STEP      L**3/T
     ------------------                 ------------------------

           IN:                                      IN:
           ---                                      ---
             STORAGE =       1.0477E-08               STORAGE =           0.0000
       CONSTANT HEAD =           0.0000         CONSTANT HEAD =           0.0000
               WELLS =           0.0000                 WELLS =           0.0000
     HEAD DEP BOUNDS =      108608.8828       HEAD DEP BOUNDS =         666.3123

            TOTAL IN =      108608.8828              TOTAL IN =         666.3123

          OUT:                                     OUT:
          ----                                     ----
             STORAGE =       5.2387E-08               STORAGE =           0.0000
       CONSTANT HEAD =           0.0000         CONSTANT HEAD =           0.0000
               WELLS =           0.0000                 WELLS =           0.0000
     HEAD DEP BOUNDS =      108600.1172       HEAD DEP BOUNDS =         666.2595

           TOTAL OUT =      108600.1172             TOTAL OUT =         666.2595

            IN - OUT =           8.7656              IN - OUT =       5.2795E-02

 PERCENT DISCREPANCY =           0.01     PERCENT DISCREPANCY =           0.01






         TIME SUMMARY AT END OF TIME STEP   62 IN STRESS PERIOD    3
                    SECONDS     MINUTES      HOURS       DAYS        YEARS
                    -----------------------------------------------------------
   TIME STEP LENGTH  86400.      1440.0      24.000      1.0000     2.73785E-03
 STRESS PERIOD TIME 5.35680E+06  89280.      1488.0      62.000     0.16975    
         TOTAL TIME 1.40832E+07 2.34720E+05  3912.0      163.00     0.44627    
1
 
 SOLVING FOR HEAD 

 OUTPUT CONTROL FOR STRESS PERIOD    3   TIME STEP   63
    SAVE HEAD FOR ALL LAYERS
    SAVE DRAWDOWN FOR ALL LAYERS
    SAVE BUDGET
    PRINT HEAD FOR ALL LAYERS
    PRINT BUDGET
 UBDSV1 SAVING "         STORAGE" ON UNIT  53 AT TIME STEP 63, STRESS PERIOD   3
 UBDSV2 SAVING "   CONSTANT HEAD" ON UNIT  53 AT TIME STEP 63, STRESS PERIOD   3
 UBDSV1 SAVING "FLOW RIGHT FACE " ON UNIT  53 AT TIME STEP 63, STRESS PERIOD   3
 UBDSV1 SAVING "FLOW FRONT FACE " ON UNIT  53 AT TIME STEP 63, STRESS PERIOD   3
 UBDSV1 SAVING "FLOW LOWER FACE " ON UNIT  53 AT TIME STEP 63, STRESS PERIOD   3
1
              HEAD IN LAYER   1 AT END OF TIME STEP  63 IN STRESS PERIOD    3
  ---------------------------------------------------------------------------

            1           2           3           4           5           6           7           8           9          10
 ........................................................................................................................
   1    9.997       8.887       7.776       6.666       5.555       4.445       3.335       2.224       1.114      3.3313E-03
   2    9.997       8.887       7.776       6.666       5.555       4.445       3.335       2.224       1.114      3.3313E-03
   3    9.997       8.887       7.776       6.666       5.555       4.445       3.335       2.224       1.114      3.3313E-03
   4    9.997       8.887       7.776       6.666       5.555       4.445       3.335       2.224       1.114      3.3313E-03
   5    9.997       8.887       7.776       6.666       5.555       4.445       3.335       2.224       1.114      3.3313E-03
   6    9.997       8.887       7.776       6.666       5.555       4.445       3.335       2.224       1.114      3.3313E-03
   7    9.997       8.887       7.776       6.666       5.555       4.445       3.335       2.224       1.114      3.3313E-03
   8    9.997       8.887       7.776       6.666       5.555       4.445       3.335       2.224       1.114      3.3313E-03
   9    9.997       8.887       7.776       6.666       5.555       4.445       3.335       2.224       1.114      3.3313E-03
  10    9.997       8.887       7.776       6.666       5.555       4.445       3.335       2.224       1.114      3.3313E-03
1
              HEAD IN LAYER   2 AT END OF TIME STEP  63 IN STRESS PERIOD    3
  ---------------------------------------------------------------------------

            1           2           3           4           5           6           7           8           9          10
 ........................................................................................................................
   1    9.997       8.887       7.776       6.666       5.555       4.445       3.335       2.224       1.114      3.3313E-03
   2    9.997       8.887       7.776       6.666       5.555       4.445       3.335       2.224       1.114      3.3313E-03
   3    9.997       8.887       7.776       6.666       5.555       4.445       3.335       2.224       1.114      3.3313E-03
   4    9.997       8.887       7.776       6.666       5.555       4.445       3.335       2.224       1.114      3.3313E-03
   5    9.997       8.887       7.776       6.666       5.555       4.445       3.335       2.224       1.114      3.3313E-03
   6    9.997       8.887       7.776       6.666       5.555       4.445       3.335       2.224       1.114      3.3313E-03
   7    9.997       8.887       7.776       6.666       5.555       4.445       3.335       2.224       1.114      3.3313E-03
   8    9.997       8.887       7.776       6.666       5.555       4.445       3.335       2.224       1.114      3.3313E-03
   9    9.997       8.887       7.776       6.666       5.555       4.445       3.335       2.224       1.114      3.3313E-03
  10    9.997       8.887       7.776       6.666       5.555       4.445       3.335       2.224       1.114      3.3313E-03
1
              HEAD IN LAYER   3 AT END OF TIME STEP  63 IN STRESS PERIOD    3
  ---------------------------------------------------------------------------

            1           2           3           4           5           6           7           8           9          10
 ........................................................................................................................
   1    9.997       8.887       7.776       6.666       5.555       4.445       3.335       2.224       1.114      3.3313E-03
   2    9.997       8.887       7.776       6.666       5.555       4.445       3.335       2.224       1.114      3.3313E-03
   3    9.997       8.887       7.776       6.666       5.555       4.445       3.335       2.224       1.114      3.3313E-03
   4    9.997       8.887       7.776       6.666       5.555       4.445       3.335       2.224       1.114      3.3313E-03
   5    9.997       8.887       7.776       6.666       5.555       4.445       3.335       2.224       1.114      3.3313E-03
   6    9.997       8.887       7.776       6.666       5.555       4.445       3.335       2.224       1.114      3.3313E-03
   7    9.997       8.887       7.776       6.666       5.555       4.445       3.335       2.224       1.114      3.3313E-03
   8    9.997       8.887       7.776       6.666       5.555       4.445       3.335       2.224       1.114      3.3313E-03
   9    9.997       8.887       7.776       6.666       5.555       4.445       3.335       2.224       1.114      3.3313E-03
  10    9.997       8.887       7.776       6.666       5.555       4.445       3.335       2.224       1.114      3.3313E-03
1
              HEAD IN LAYER   4 AT END OF TIME STEP  63 IN STRESS PERIOD    3
  ---------------------------------------------------------------------------

            1           2           3           4           5           6           7           8           9          10
 ........................................................................................................................
   1    9.997       8.887       7.776       6.666       5.555       4.445       3.335       2.224       1.114      3.3313E-03
   2    9.997       8.887       7.776       6.666       5.555       4.445       3.335       2.224       1.114      3.3313E-03
   3    9.997       8.887       7.776       6.666       5.555       4.445       3.335       2.224       1.114      3.3313E-03
   4    9.997       8.887       7.776       6.666       5.555       4.445       3.335       2.224       1.114      3.3313E-03
   5    9.997       8.887       7.776       6.666       5.555       4.445       3.335       2.224       1.114      3.3313E-03
   6    9.997       8.887       7.776       6.666       5.555       4.445       3.335       2.224       1.114      3.3313E-03
   7    9.997       8.887       7.776       6.666       5.555       4.445       3.335       2.224       1.114      3.3313E-03
   8    9.997       8.887       7.776       6.666       5.555       4.445       3.335       2.224       1.114      3.3313E-03
   9    9.997       8.887       7.776       6.666       5.555       4.445       3.335       2.224       1.114      3.3313E-03
  10    9.997       8.887       7.776       6.666       5.555       4.445       3.335       2.224       1.114      3.3313E-03

 HEAD WILL BE SAVED ON UNIT   51 AT END OF TIME STEP   63, STRESS PERIOD    3

 DRAWDOWN WILL BE SAVED ON UNIT   52 AT END OF TIME STEP   63, STRESS PERIOD    3
1
  VOLUMETRIC BUDGET FOR ENTIRE MODEL AT END OF TIME STEP   63, STRESS PERIOD   3
  ------------------------------------------------------------------------------

     CUMULATIVE VOLUMES      L**3       RATES FOR THIS TIME STEP      L**3/T
     ------------------                 ------------------------

           IN:                                      IN:
           ---                                      ---
             STORAGE =       1.0477E-08               STORAGE =           0.0000
       CONSTANT HEAD =           0.0000         CONSTANT HEAD =           0.0000
               WELLS =           0.0000                 WELLS =           0.0000
     HEAD DEP BOUNDS =      109275.1953       HEAD DEP BOUNDS =         666.3123

            TOTAL IN =      109275.1953              TOTAL IN =         666.3123

          OUT:                                     OUT:
          ----                                     ----
             STORAGE =       5.2387E-08               STORAGE =           0.0000
       CONSTANT HEAD =           0.0000         CONSTANT HEAD =           0.0000
               WELLS =           0.0000                 WELLS =           0.0000
     HEAD DEP BOUNDS =      109266.3750       HEAD DEP BOUNDS =         666.2595

           TOTAL OUT =      109266.3750             TOTAL OUT =         666.2595

            IN - OUT =           8.8203              IN - OUT =       5.2795E-02

 PERCENT DISCREPANCY =           0.01     PERCENT DISCREPANCY =           0.01






         TIME SUMMARY AT END OF TIME STEP   63 IN STRESS PERIOD    3
                    SECONDS     MINUTES      HOURS       DAYS        YEARS
                    -----------------------------------------------------------
   TIME STEP LENGTH  86400.      1440.0      24.000      1.0000     2.73785E-03
 STRESS PERIOD TIME 5.44320E+06  90720.      1512.0      63.000     0.17248    
         TOTAL TIME 1.41696E+07 2.36160E+05  3936.0      164.00     0.44901    
1
 
 SOLVING FOR HEAD 

 OUTPUT CONTROL FOR STRESS PERIOD    3   TIME STEP   64
    SAVE HEAD FOR ALL LAYERS
    SAVE DRAWDOWN FOR ALL LAYERS
    SAVE BUDGET
    PRINT HEAD FOR ALL LAYERS
    PRINT BUDGET
 UBDSV1 SAVING "         STORAGE" ON UNIT  53 AT TIME STEP 64, STRESS PERIOD   3
 UBDSV2 SAVING "   CONSTANT HEAD" ON UNIT  53 AT TIME STEP 64, STRESS PERIOD   3
 UBDSV1 SAVING "FLOW RIGHT FACE " ON UNIT  53 AT TIME STEP 64, STRESS PERIOD   3
 UBDSV1 SAVING "FLOW FRONT FACE " ON UNIT  53 AT TIME STEP 64, STRESS PERIOD   3
 UBDSV1 SAVING "FLOW LOWER FACE " ON UNIT  53 AT TIME STEP 64, STRESS PERIOD   3
1
              HEAD IN LAYER   1 AT END OF TIME STEP  64 IN STRESS PERIOD    3
  ---------------------------------------------------------------------------

            1           2           3           4           5           6           7           8           9          10
 ........................................................................................................................
   1    9.997       8.887       7.776       6.666       5.555       4.445       3.335       2.224       1.114      3.3313E-03
   2    9.997       8.887       7.776       6.666       5.555       4.445       3.335       2.224       1.114      3.3313E-03
   3    9.997       8.887       7.776       6.666       5.555       4.445       3.335       2.224       1.114      3.3313E-03
   4    9.997       8.887       7.776       6.666       5.555       4.445       3.335       2.224       1.114      3.3313E-03
   5    9.997       8.887       7.776       6.666       5.555       4.445       3.335       2.224       1.114      3.3313E-03
   6    9.997       8.887       7.776       6.666       5.555       4.445       3.335       2.224       1.114      3.3313E-03
   7    9.997       8.887       7.776       6.666       5.555       4.445       3.335       2.224       1.114      3.3313E-03
   8    9.997       8.887       7.776       6.666       5.555       4.445       3.335       2.224       1.114      3.3313E-03
   9    9.997       8.887       7.776       6.666       5.555       4.445       3.335       2.224       1.114      3.3313E-03
  10    9.997       8.887       7.776       6.666       5.555       4.445       3.335       2.224       1.114      3.3313E-03
1
              HEAD IN LAYER   2 AT END OF TIME STEP  64 IN STRESS PERIOD    3
  ---------------------------------------------------------------------------

            1           2           3           4           5           6           7           8           9          10
 ........................................................................................................................
   1    9.997       8.887       7.776       6.666       5.555       4.445       3.335       2.224       1.114      3.3313E-03
   2    9.997       8.887       7.776       6.666       5.555       4.445       3.335       2.224       1.114      3.3313E-03
   3    9.997       8.887       7.776       6.666       5.555       4.445       3.335       2.224       1.114      3.3313E-03
   4    9.997       8.887       7.776       6.666       5.555       4.445       3.335       2.224       1.114      3.3313E-03
   5    9.997       8.887       7.776       6.666       5.555       4.445       3.335       2.224       1.114      3.3313E-03
   6    9.997       8.887       7.776       6.666       5.555       4.445       3.335       2.224       1.114      3.3313E-03
   7    9.997       8.887       7.776       6.666       5.555       4.445       3.335       2.224       1.114      3.3313E-03
   8    9.997       8.887       7.776       6.666       5.555       4.445       3.335       2.224       1.114      3.3313E-03
   9    9.997       8.887       7.776       6.666       5.555       4.445       3.335       2.224       1.114      3.3313E-03
  10    9.997       8.887       7.776       6.666       5.555       4.445       3.335       2.224       1.114      3.3313E-03
1
              HEAD IN LAYER   3 AT END OF TIME STEP  64 IN STRESS PERIOD    3
  ---------------------------------------------------------------------------

            1           2           3           4           5           6           7           8           9          10
 ........................................................................................................................
   1    9.997       8.887       7.776       6.666       5.555       4.445       3.335       2.224       1.114      3.3313E-03
   2    9.997       8.887       7.776       6.666       5.555       4.445       3.335       2.224       1.114      3.3313E-03
   3    9.997       8.887       7.776       6.666       5.555       4.445       3.335       2.224       1.114      3.3313E-03
   4    9.997       8.887       7.776       6.666       5.555       4.445       3.335       2.224       1.114      3.3313E-03
   5    9.997       8.887       7.776       6.666       5.555       4.445       3.335       2.224       1.114      3.3313E-03
   6    9.997       8.887       7.776       6.666       5.555       4.445       3.335       2.224       1.114      3.3313E-03
   7    9.997       8.887       7.776       6.666       5.555       4.445       3.335       2.224       1.114      3.3313E-03
   8    9.997       8.887       7.776       6.666       5.555       4.445       3.335       2.224       1.114      3.3313E-03
   9    9.997       8.887       7.776       6.666       5.555       4.445       3.335       2.224       1.114      3.3313E-03
  10    9.997       8.887       7.776       6.666       5.555       4.445       3.335       2.224       1.114      3.3313E-03
1
              HEAD IN LAYER   4 AT END OF TIME STEP  64 IN STRESS PERIOD    3
  ---------------------------------------------------------------------------

            1           2           3           4           5           6           7           8           9          10
 ........................................................................................................................
   1    9.997       8.887       7.776       6.666       5.555       4.445       3.335       2.224       1.114      3.3313E-03
   2    9.997       8.887       7.776       6.666       5.555       4.445       3.335       2.224       1.114      3.3313E-03
   3    9.997       8.887       7.776       6.666       5.555       4.445       3.335       2.224       1.114      3.3313E-03
   4    9.997       8.887       7.776       6.666       5.555       4.445       3.335       2.224       1.114      3.3313E-03
   5    9.997       8.887       7.776       6.666       5.555       4.445       3.335       2.224       1.114      3.3313E-03
   6    9.997       8.887       7.776       6.666       5.555       4.445       3.335       2.224       1.114      3.3313E-03
   7    9.997       8.887       7.776       6.666       5.555       4.445       3.335       2.224       1.114      3.3313E-03
   8    9.997       8.887       7.776       6.666       5.555       4.445       3.335       2.224       1.114      3.3313E-03
   9    9.997       8.887       7.776       6.666       5.555       4.445       3.335       2.224       1.114      3.3313E-03
  10    9.997       8.887       7.776       6.666       5.555       4.445       3.335       2.224       1.114      3.3313E-03

 HEAD WILL BE SAVED ON UNIT   51 AT END OF TIME STEP   64, STRESS PERIOD    3

 DRAWDOWN WILL BE SAVED ON UNIT   52 AT END OF TIME STEP   64, STRESS PERIOD    3
1
  VOLUMETRIC BUDGET FOR ENTIRE MODEL AT END OF TIME STEP   64, STRESS PERIOD   3
  ------------------------------------------------------------------------------

     CUMULATIVE VOLUMES      L**3       RATES FOR THIS TIME STEP      L**3/T
     ------------------                 ------------------------

           IN:                                      IN:
           ---                                      ---
             STORAGE =       1.0477E-08               STORAGE =           0.0000
       CONSTANT HEAD =           0.0000         CONSTANT HEAD =           0.0000
               WELLS =           0.0000                 WELLS =           0.0000
     HEAD DEP BOUNDS =      109941.5078       HEAD DEP BOUNDS =         666.3123

            TOTAL IN =      109941.5078              TOTAL IN =         666.3123

          OUT:                                     OUT:
          ----                                     ----
             STORAGE =       5.2387E-08               STORAGE =           0.0000
       CONSTANT HEAD =           0.0000         CONSTANT HEAD =           0.0000
               WELLS =           0.0000                 WELLS =           0.0000
     HEAD DEP BOUNDS =      109932.6328       HEAD DEP BOUNDS =         666.2595

           TOTAL OUT =      109932.6328             TOTAL OUT =         666.2595

            IN - OUT =           8.8750              IN - OUT =       5.2795E-02

 PERCENT DISCREPANCY =           0.01     PERCENT DISCREPANCY =           0.01






         TIME SUMMARY AT END OF TIME STEP   64 IN STRESS PERIOD    3
                    SECONDS     MINUTES      HOURS       DAYS        YEARS
                    -----------------------------------------------------------
   TIME STEP LENGTH  86400.      1440.0      24.000      1.0000     2.73785E-03
 STRESS PERIOD TIME 5.52960E+06  92160.      1536.0      64.000     0.17522    
         TOTAL TIME 1.42560E+07 2.37600E+05  3960.0      165.00     0.45175    
1
 
 SOLVING FOR HEAD 

 OUTPUT CONTROL FOR STRESS PERIOD    3   TIME STEP   65
    SAVE HEAD FOR ALL LAYERS
    SAVE DRAWDOWN FOR ALL LAYERS
    SAVE BUDGET
    PRINT HEAD FOR ALL LAYERS
    PRINT BUDGET
 UBDSV1 SAVING "         STORAGE" ON UNIT  53 AT TIME STEP 65, STRESS PERIOD   3
 UBDSV2 SAVING "   CONSTANT HEAD" ON UNIT  53 AT TIME STEP 65, STRESS PERIOD   3
 UBDSV1 SAVING "FLOW RIGHT FACE " ON UNIT  53 AT TIME STEP 65, STRESS PERIOD   3
 UBDSV1 SAVING "FLOW FRONT FACE " ON UNIT  53 AT TIME STEP 65, STRESS PERIOD   3
 UBDSV1 SAVING "FLOW LOWER FACE " ON UNIT  53 AT TIME STEP 65, STRESS PERIOD   3
1
              HEAD IN LAYER   1 AT END OF TIME STEP  65 IN STRESS PERIOD    3
  ---------------------------------------------------------------------------

            1           2           3           4           5           6           7           8           9          10
 ........................................................................................................................
   1    9.997       8.887       7.776       6.666       5.555       4.445       3.335       2.224       1.114      3.3313E-03
   2    9.997       8.887       7.776       6.666       5.555       4.445       3.335       2.224       1.114      3.3313E-03
   3    9.997       8.887       7.776       6.666       5.555       4.445       3.335       2.224       1.114      3.3313E-03
   4    9.997       8.887       7.776       6.666       5.555       4.445       3.335       2.224       1.114      3.3313E-03
   5    9.997       8.887       7.776       6.666       5.555       4.445       3.335       2.224       1.114      3.3313E-03
   6    9.997       8.887       7.776       6.666       5.555       4.445       3.335       2.224       1.114      3.3313E-03
   7    9.997       8.887       7.776       6.666       5.555       4.445       3.335       2.224       1.114      3.3313E-03
   8    9.997       8.887       7.776       6.666       5.555       4.445       3.335       2.224       1.114      3.3313E-03
   9    9.997       8.887       7.776       6.666       5.555       4.445       3.335       2.224       1.114      3.3313E-03
  10    9.997       8.887       7.776       6.666       5.555       4.445       3.335       2.224       1.114      3.3313E-03
1
              HEAD IN LAYER   2 AT END OF TIME STEP  65 IN STRESS PERIOD    3
  ---------------------------------------------------------------------------

            1           2           3           4           5           6           7           8           9          10
 ........................................................................................................................
   1    9.997       8.887       7.776       6.666       5.555       4.445       3.335       2.224       1.114      3.3313E-03
   2    9.997       8.887       7.776       6.666       5.555       4.445       3.335       2.224       1.114      3.3313E-03
   3    9.997       8.887       7.776       6.666       5.555       4.445       3.335       2.224       1.114      3.3313E-03
   4    9.997       8.887       7.776       6.666       5.555       4.445       3.335       2.224       1.114      3.3313E-03
   5    9.997       8.887       7.776       6.666       5.555       4.445       3.335       2.224       1.114      3.3313E-03
   6    9.997       8.887       7.776       6.666       5.555       4.445       3.335       2.224       1.114      3.3313E-03
   7    9.997       8.887       7.776       6.666       5.555       4.445       3.335       2.224       1.114      3.3313E-03
   8    9.997       8.887       7.776       6.666       5.555       4.445       3.335       2.224       1.114      3.3313E-03
   9    9.997       8.887       7.776       6.666       5.555       4.445       3.335       2.224       1.114      3.3313E-03
  10    9.997       8.887       7.776       6.666       5.555       4.445       3.335       2.224       1.114      3.3313E-03
1
              HEAD IN LAYER   3 AT END OF TIME STEP  65 IN STRESS PERIOD    3
  ---------------------------------------------------------------------------

            1           2           3           4           5           6           7           8           9          10
 ........................................................................................................................
   1    9.997       8.887       7.776       6.666       5.555       4.445       3.335       2.224       1.114      3.3313E-03
   2    9.997       8.887       7.776       6.666       5.555       4.445       3.335       2.224       1.114      3.3313E-03
   3    9.997       8.887       7.776       6.666       5.555       4.445       3.335       2.224       1.114      3.3313E-03
   4    9.997       8.887       7.776       6.666       5.555       4.445       3.335       2.224       1.114      3.3313E-03
   5    9.997       8.887       7.776       6.666       5.555       4.445       3.335       2.224       1.114      3.3313E-03
   6    9.997       8.887       7.776       6.666       5.555       4.445       3.335       2.224       1.114      3.3313E-03
   7    9.997       8.887       7.776       6.666       5.555       4.445       3.335       2.224       1.114      3.3313E-03
   8    9.997       8.887       7.776       6.666       5.555       4.445       3.335       2.224       1.114      3.3313E-03
   9    9.997       8.887       7.776       6.666       5.555       4.445       3.335       2.224       1.114      3.3313E-03
  10    9.997       8.887       7.776       6.666       5.555       4.445       3.335       2.224       1.114      3.3313E-03
1
              HEAD IN LAYER   4 AT END OF TIME STEP  65 IN STRESS PERIOD    3
  ---------------------------------------------------------------------------

            1           2           3           4           5           6           7           8           9          10
 ........................................................................................................................
   1    9.997       8.887       7.776       6.666       5.555       4.445       3.335       2.224       1.114      3.3313E-03
   2    9.997       8.887       7.776       6.666       5.555       4.445       3.335       2.224       1.114      3.3313E-03
   3    9.997       8.887       7.776       6.666       5.555       4.445       3.335       2.224       1.114      3.3313E-03
   4    9.997       8.887       7.776       6.666       5.555       4.445       3.335       2.224       1.114      3.3313E-03
   5    9.997       8.887       7.776       6.666       5.555       4.445       3.335       2.224       1.114      3.3313E-03
   6    9.997       8.887       7.776       6.666       5.555       4.445       3.335       2.224       1.114      3.3313E-03
   7    9.997       8.887       7.776       6.666       5.555       4.445       3.335       2.224       1.114      3.3313E-03
   8    9.997       8.887       7.776       6.666       5.555       4.445       3.335       2.224       1.114      3.3313E-03
   9    9.997       8.887       7.776       6.666       5.555       4.445       3.335       2.224       1.114      3.3313E-03
  10    9.997       8.887       7.776       6.666       5.555       4.445       3.335       2.224       1.114      3.3313E-03

 HEAD WILL BE SAVED ON UNIT   51 AT END OF TIME STEP   65, STRESS PERIOD    3

 DRAWDOWN WILL BE SAVED ON UNIT   52 AT END OF TIME STEP   65, STRESS PERIOD    3
1
  VOLUMETRIC BUDGET FOR ENTIRE MODEL AT END OF TIME STEP   65, STRESS PERIOD   3
  ------------------------------------------------------------------------------

     CUMULATIVE VOLUMES      L**3       RATES FOR THIS TIME STEP      L**3/T
     ------------------                 ------------------------

           IN:                                      IN:
           ---                                      ---
             STORAGE =       1.0477E-08               STORAGE =           0.0000
       CONSTANT HEAD =           0.0000         CONSTANT HEAD =           0.0000
               WELLS =           0.0000                 WELLS =           0.0000
     HEAD DEP BOUNDS =      110607.8203       HEAD DEP BOUNDS =         666.3123

            TOTAL IN =      110607.8203              TOTAL IN =         666.3123

          OUT:                                     OUT:
          ----                                     ----
             STORAGE =       5.2387E-08               STORAGE =           0.0000
       CONSTANT HEAD =           0.0000         CONSTANT HEAD =           0.0000
               WELLS =           0.0000                 WELLS =           0.0000
     HEAD DEP BOUNDS =      110598.8906       HEAD DEP BOUNDS =         666.2595

           TOTAL OUT =      110598.8906             TOTAL OUT =         666.2595

            IN - OUT =           8.9297              IN - OUT =       5.2795E-02

 PERCENT DISCREPANCY =           0.01     PERCENT DISCREPANCY =           0.01






         TIME SUMMARY AT END OF TIME STEP   65 IN STRESS PERIOD    3
                    SECONDS     MINUTES      HOURS       DAYS        YEARS
                    -----------------------------------------------------------
   TIME STEP LENGTH  86400.      1440.0      24.000      1.0000     2.73785E-03
 STRESS PERIOD TIME 5.61600E+06  93600.      1560.0      65.000     0.17796    
         TOTAL TIME 1.43424E+07 2.39040E+05  3984.0      166.00     0.45448    
1
 
 SOLVING FOR HEAD 

 OUTPUT CONTROL FOR STRESS PERIOD    3   TIME STEP   66
    SAVE HEAD FOR ALL LAYERS
    SAVE DRAWDOWN FOR ALL LAYERS
    SAVE BUDGET
    PRINT HEAD FOR ALL LAYERS
    PRINT BUDGET
 UBDSV1 SAVING "         STORAGE" ON UNIT  53 AT TIME STEP 66, STRESS PERIOD   3
 UBDSV2 SAVING "   CONSTANT HEAD" ON UNIT  53 AT TIME STEP 66, STRESS PERIOD   3
 UBDSV1 SAVING "FLOW RIGHT FACE " ON UNIT  53 AT TIME STEP 66, STRESS PERIOD   3
 UBDSV1 SAVING "FLOW FRONT FACE " ON UNIT  53 AT TIME STEP 66, STRESS PERIOD   3
 UBDSV1 SAVING "FLOW LOWER FACE " ON UNIT  53 AT TIME STEP 66, STRESS PERIOD   3
1
              HEAD IN LAYER   1 AT END OF TIME STEP  66 IN STRESS PERIOD    3
  ---------------------------------------------------------------------------

            1           2           3           4           5           6           7           8           9          10
 ........................................................................................................................
   1    9.997       8.887       7.776       6.666       5.555       4.445       3.335       2.224       1.114      3.3313E-03
   2    9.997       8.887       7.776       6.666       5.555       4.445       3.335       2.224       1.114      3.3313E-03
   3    9.997       8.887       7.776       6.666       5.555       4.445       3.335       2.224       1.114      3.3313E-03
   4    9.997       8.887       7.776       6.666       5.555       4.445       3.335       2.224       1.114      3.3313E-03
   5    9.997       8.887       7.776       6.666       5.555       4.445       3.335       2.224       1.114      3.3313E-03
   6    9.997       8.887       7.776       6.666       5.555       4.445       3.335       2.224       1.114      3.3313E-03
   7    9.997       8.887       7.776       6.666       5.555       4.445       3.335       2.224       1.114      3.3313E-03
   8    9.997       8.887       7.776       6.666       5.555       4.445       3.335       2.224       1.114      3.3313E-03
   9    9.997       8.887       7.776       6.666       5.555       4.445       3.335       2.224       1.114      3.3313E-03
  10    9.997       8.887       7.776       6.666       5.555       4.445       3.335       2.224       1.114      3.3313E-03
1
              HEAD IN LAYER   2 AT END OF TIME STEP  66 IN STRESS PERIOD    3
  ---------------------------------------------------------------------------

            1           2           3           4           5           6           7           8           9          10
 ........................................................................................................................
   1    9.997       8.887       7.776       6.666       5.555       4.445       3.335       2.224       1.114      3.3313E-03
   2    9.997       8.887       7.776       6.666       5.555       4.445       3.335       2.224       1.114      3.3313E-03
   3    9.997       8.887       7.776       6.666       5.555       4.445       3.335       2.224       1.114      3.3313E-03
   4    9.997       8.887       7.776       6.666       5.555       4.445       3.335       2.224       1.114      3.3313E-03
   5    9.997       8.887       7.776       6.666       5.555       4.445       3.335       2.224       1.114      3.3313E-03
   6    9.997       8.887       7.776       6.666       5.555       4.445       3.335       2.224       1.114      3.3313E-03
   7    9.997       8.887       7.776       6.666       5.555       4.445       3.335       2.224       1.114      3.3313E-03
   8    9.997       8.887       7.776       6.666       5.555       4.445       3.335       2.224       1.114      3.3313E-03
   9    9.997       8.887       7.776       6.666       5.555       4.445       3.335       2.224       1.114      3.3313E-03
  10    9.997       8.887       7.776       6.666       5.555       4.445       3.335       2.224       1.114      3.3313E-03
1
              HEAD IN LAYER   3 AT END OF TIME STEP  66 IN STRESS PERIOD    3
  ---------------------------------------------------------------------------

            1           2           3           4           5           6           7           8           9          10
 ........................................................................................................................
   1    9.997       8.887       7.776       6.666       5.555       4.445       3.335       2.224       1.114      3.3313E-03
   2    9.997       8.887       7.776       6.666       5.555       4.445       3.335       2.224       1.114      3.3313E-03
   3    9.997       8.887       7.776       6.666       5.555       4.445       3.335       2.224       1.114      3.3313E-03
   4    9.997       8.887       7.776       6.666       5.555       4.445       3.335       2.224       1.114      3.3313E-03
   5    9.997       8.887       7.776       6.666       5.555       4.445       3.335       2.224       1.114      3.3313E-03
   6    9.997       8.887       7.776       6.666       5.555       4.445       3.335       2.224       1.114      3.3313E-03
   7    9.997       8.887       7.776       6.666       5.555       4.445       3.335       2.224       1.114      3.3313E-03
   8    9.997       8.887       7.776       6.666       5.555       4.445       3.335       2.224       1.114      3.3313E-03
   9    9.997       8.887       7.776       6.666       5.555       4.445       3.335       2.224       1.114      3.3313E-03
  10    9.997       8.887       7.776       6.666       5.555       4.445       3.335       2.224       1.114      3.3313E-03
1
              HEAD IN LAYER   4 AT END OF TIME STEP  66 IN STRESS PERIOD    3
  ---------------------------------------------------------------------------

            1           2           3           4           5           6           7           8           9          10
 ........................................................................................................................
   1    9.997       8.887       7.776       6.666       5.555       4.445       3.335       2.224       1.114      3.3313E-03
   2    9.997       8.887       7.776       6.666       5.555       4.445       3.335       2.224       1.114      3.3313E-03
   3    9.997       8.887       7.776       6.666       5.555       4.445       3.335       2.224       1.114      3.3313E-03
   4    9.997       8.887       7.776       6.666       5.555       4.445       3.335       2.224       1.114      3.3313E-03
   5    9.997       8.887       7.776       6.666       5.555       4.445       3.335       2.224       1.114      3.3313E-03
   6    9.997       8.887       7.776       6.666       5.555       4.445       3.335       2.224       1.114      3.3313E-03
   7    9.997       8.887       7.776       6.666       5.555       4.445       3.335       2.224       1.114      3.3313E-03
   8    9.997       8.887       7.776       6.666       5.555       4.445       3.335       2.224       1.114      3.3313E-03
   9    9.997       8.887       7.776       6.666       5.555       4.445       3.335       2.224       1.114      3.3313E-03
  10    9.997       8.887       7.776       6.666       5.555       4.445       3.335       2.224       1.114      3.3313E-03

 HEAD WILL BE SAVED ON UNIT   51 AT END OF TIME STEP   66, STRESS PERIOD    3

 DRAWDOWN WILL BE SAVED ON UNIT   52 AT END OF TIME STEP   66, STRESS PERIOD    3
1
  VOLUMETRIC BUDGET FOR ENTIRE MODEL AT END OF TIME STEP   66, STRESS PERIOD   3
  ------------------------------------------------------------------------------

     CUMULATIVE VOLUMES      L**3       RATES FOR THIS TIME STEP      L**3/T
     ------------------                 ------------------------

           IN:                                      IN:
           ---                                      ---
             STORAGE =       1.0477E-08               STORAGE =           0.0000
       CONSTANT HEAD =           0.0000         CONSTANT HEAD =           0.0000
               WELLS =           0.0000                 WELLS =           0.0000
     HEAD DEP BOUNDS =      111274.1328       HEAD DEP BOUNDS =         666.3123

            TOTAL IN =      111274.1328              TOTAL IN =         666.3123

          OUT:                                     OUT:
          ----                                     ----
             STORAGE =       5.2387E-08               STORAGE =           0.0000
       CONSTANT HEAD =           0.0000         CONSTANT HEAD =           0.0000
               WELLS =           0.0000                 WELLS =           0.0000
     HEAD DEP BOUNDS =      111265.1484       HEAD DEP BOUNDS =         666.2595

           TOTAL OUT =      111265.1484             TOTAL OUT =         666.2595

            IN - OUT =           8.9844              IN - OUT =       5.2795E-02

 PERCENT DISCREPANCY =           0.01     PERCENT DISCREPANCY =           0.01






         TIME SUMMARY AT END OF TIME STEP   66 IN STRESS PERIOD    3
                    SECONDS     MINUTES      HOURS       DAYS        YEARS
                    -----------------------------------------------------------
   TIME STEP LENGTH  86400.      1440.0      24.000      1.0000     2.73785E-03
 STRESS PERIOD TIME 5.70240E+06  95040.      1584.0      66.000     0.18070    
         TOTAL TIME 1.44288E+07 2.40480E+05  4008.0      167.00     0.45722    
1
 
 SOLVING FOR HEAD 

 OUTPUT CONTROL FOR STRESS PERIOD    3   TIME STEP   67
    SAVE HEAD FOR ALL LAYERS
    SAVE DRAWDOWN FOR ALL LAYERS
    SAVE BUDGET
    PRINT HEAD FOR ALL LAYERS
    PRINT BUDGET
 UBDSV1 SAVING "         STORAGE" ON UNIT  53 AT TIME STEP 67, STRESS PERIOD   3
 UBDSV2 SAVING "   CONSTANT HEAD" ON UNIT  53 AT TIME STEP 67, STRESS PERIOD   3
 UBDSV1 SAVING "FLOW RIGHT FACE " ON UNIT  53 AT TIME STEP 67, STRESS PERIOD   3
 UBDSV1 SAVING "FLOW FRONT FACE " ON UNIT  53 AT TIME STEP 67, STRESS PERIOD   3
 UBDSV1 SAVING "FLOW LOWER FACE " ON UNIT  53 AT TIME STEP 67, STRESS PERIOD   3
1
              HEAD IN LAYER   1 AT END OF TIME STEP  67 IN STRESS PERIOD    3
  ---------------------------------------------------------------------------

            1           2           3           4           5           6           7           8           9          10
 ........................................................................................................................
   1    9.997       8.887       7.776       6.666       5.555       4.445       3.335       2.224       1.114      3.3313E-03
   2    9.997       8.887       7.776       6.666       5.555       4.445       3.335       2.224       1.114      3.3313E-03
   3    9.997       8.887       7.776       6.666       5.555       4.445       3.335       2.224       1.114      3.3313E-03
   4    9.997       8.887       7.776       6.666       5.555       4.445       3.335       2.224       1.114      3.3313E-03
   5    9.997       8.887       7.776       6.666       5.555       4.445       3.335       2.224       1.114      3.3313E-03
   6    9.997       8.887       7.776       6.666       5.555       4.445       3.335       2.224       1.114      3.3313E-03
   7    9.997       8.887       7.776       6.666       5.555       4.445       3.335       2.224       1.114      3.3313E-03
   8    9.997       8.887       7.776       6.666       5.555       4.445       3.335       2.224       1.114      3.3313E-03
   9    9.997       8.887       7.776       6.666       5.555       4.445       3.335       2.224       1.114      3.3313E-03
  10    9.997       8.887       7.776       6.666       5.555       4.445       3.335       2.224       1.114      3.3313E-03
1
              HEAD IN LAYER   2 AT END OF TIME STEP  67 IN STRESS PERIOD    3
  ---------------------------------------------------------------------------

            1           2           3           4           5           6           7           8           9          10
 ........................................................................................................................
   1    9.997       8.887       7.776       6.666       5.555       4.445       3.335       2.224       1.114      3.3313E-03
   2    9.997       8.887       7.776       6.666       5.555       4.445       3.335       2.224       1.114      3.3313E-03
   3    9.997       8.887       7.776       6.666       5.555       4.445       3.335       2.224       1.114      3.3313E-03
   4    9.997       8.887       7.776       6.666       5.555       4.445       3.335       2.224       1.114      3.3313E-03
   5    9.997       8.887       7.776       6.666       5.555       4.445       3.335       2.224       1.114      3.3313E-03
   6    9.997       8.887       7.776       6.666       5.555       4.445       3.335       2.224       1.114      3.3313E-03
   7    9.997       8.887       7.776       6.666       5.555       4.445       3.335       2.224       1.114      3.3313E-03
   8    9.997       8.887       7.776       6.666       5.555       4.445       3.335       2.224       1.114      3.3313E-03
   9    9.997       8.887       7.776       6.666       5.555       4.445       3.335       2.224       1.114      3.3313E-03
  10    9.997       8.887       7.776       6.666       5.555       4.445       3.335       2.224       1.114      3.3313E-03
1
              HEAD IN LAYER   3 AT END OF TIME STEP  67 IN STRESS PERIOD    3
  ---------------------------------------------------------------------------

            1           2           3           4           5           6           7           8           9          10
 ........................................................................................................................
   1    9.997       8.887       7.776       6.666       5.555       4.445       3.335       2.224       1.114      3.3313E-03
   2    9.997       8.887       7.776       6.666       5.555       4.445       3.335       2.224       1.114      3.3313E-03
   3    9.997       8.887       7.776       6.666       5.555       4.445       3.335       2.224       1.114      3.3313E-03
   4    9.997       8.887       7.776       6.666       5.555       4.445       3.335       2.224       1.114      3.3313E-03
   5    9.997       8.887       7.776       6.666       5.555       4.445       3.335       2.224       1.114      3.3313E-03
   6    9.997       8.887       7.776       6.666       5.555       4.445       3.335       2.224       1.114      3.3313E-03
   7    9.997       8.887       7.776       6.666       5.555       4.445       3.335       2.224       1.114      3.3313E-03
   8    9.997       8.887       7.776       6.666       5.555       4.445       3.335       2.224       1.114      3.3313E-03
   9    9.997       8.887       7.776       6.666       5.555       4.445       3.335       2.224       1.114      3.3313E-03
  10    9.997       8.887       7.776       6.666       5.555       4.445       3.335       2.224       1.114      3.3313E-03
1
              HEAD IN LAYER   4 AT END OF TIME STEP  67 IN STRESS PERIOD    3
  ---------------------------------------------------------------------------

            1           2           3           4           5           6           7           8           9          10
 ........................................................................................................................
   1    9.997       8.887       7.776       6.666       5.555       4.445       3.335       2.224       1.114      3.3313E-03
   2    9.997       8.887       7.776       6.666       5.555       4.445       3.335       2.224       1.114      3.3313E-03
   3    9.997       8.887       7.776       6.666       5.555       4.445       3.335       2.224       1.114      3.3313E-03
   4    9.997       8.887       7.776       6.666       5.555       4.445       3.335       2.224       1.114      3.3313E-03
   5    9.997       8.887       7.776       6.666       5.555       4.445       3.335       2.224       1.114      3.3313E-03
   6    9.997       8.887       7.776       6.666       5.555       4.445       3.335       2.224       1.114      3.3313E-03
   7    9.997       8.887       7.776       6.666       5.555       4.445       3.335       2.224       1.114      3.3313E-03
   8    9.997       8.887       7.776       6.666       5.555       4.445       3.335       2.224       1.114      3.3313E-03
   9    9.997       8.887       7.776       6.666       5.555       4.445       3.335       2.224       1.114      3.3313E-03
  10    9.997       8.887       7.776       6.666       5.555       4.445       3.335       2.224       1.114      3.3313E-03

 HEAD WILL BE SAVED ON UNIT   51 AT END OF TIME STEP   67, STRESS PERIOD    3

 DRAWDOWN WILL BE SAVED ON UNIT   52 AT END OF TIME STEP   67, STRESS PERIOD    3
1
  VOLUMETRIC BUDGET FOR ENTIRE MODEL AT END OF TIME STEP   67, STRESS PERIOD   3
  ------------------------------------------------------------------------------

     CUMULATIVE VOLUMES      L**3       RATES FOR THIS TIME STEP      L**3/T
     ------------------                 ------------------------

           IN:                                      IN:
           ---                                      ---
             STORAGE =       1.0477E-08               STORAGE =           0.0000
       CONSTANT HEAD =           0.0000         CONSTANT HEAD =           0.0000
               WELLS =           0.0000                 WELLS =           0.0000
     HEAD DEP BOUNDS =      111940.4453       HEAD DEP BOUNDS =         666.3123

            TOTAL IN =      111940.4453              TOTAL IN =         666.3123

          OUT:                                     OUT:
          ----                                     ----
             STORAGE =       5.2387E-08               STORAGE =           0.0000
       CONSTANT HEAD =           0.0000         CONSTANT HEAD =           0.0000
               WELLS =           0.0000                 WELLS =           0.0000
     HEAD DEP BOUNDS =      111931.4062       HEAD DEP BOUNDS =         666.2595

           TOTAL OUT =      111931.4062             TOTAL OUT =         666.2595

            IN - OUT =           9.0391              IN - OUT =       5.2795E-02

 PERCENT DISCREPANCY =           0.01     PERCENT DISCREPANCY =           0.01






         TIME SUMMARY AT END OF TIME STEP   67 IN STRESS PERIOD    3
                    SECONDS     MINUTES      HOURS       DAYS        YEARS
                    -----------------------------------------------------------
   TIME STEP LENGTH  86400.      1440.0      24.000      1.0000     2.73785E-03
 STRESS PERIOD TIME 5.78880E+06  96480.      1608.0      67.000     0.18344    
         TOTAL TIME 1.45152E+07 2.41920E+05  4032.0      168.00     0.45996    
1
 
 SOLVING FOR HEAD 

 OUTPUT CONTROL FOR STRESS PERIOD    3   TIME STEP   68
    SAVE HEAD FOR ALL LAYERS
    SAVE DRAWDOWN FOR ALL LAYERS
    SAVE BUDGET
    PRINT HEAD FOR ALL LAYERS
    PRINT BUDGET
 UBDSV1 SAVING "         STORAGE" ON UNIT  53 AT TIME STEP 68, STRESS PERIOD   3
 UBDSV2 SAVING "   CONSTANT HEAD" ON UNIT  53 AT TIME STEP 68, STRESS PERIOD   3
 UBDSV1 SAVING "FLOW RIGHT FACE " ON UNIT  53 AT TIME STEP 68, STRESS PERIOD   3
 UBDSV1 SAVING "FLOW FRONT FACE " ON UNIT  53 AT TIME STEP 68, STRESS PERIOD   3
 UBDSV1 SAVING "FLOW LOWER FACE " ON UNIT  53 AT TIME STEP 68, STRESS PERIOD   3
1
              HEAD IN LAYER   1 AT END OF TIME STEP  68 IN STRESS PERIOD    3
  ---------------------------------------------------------------------------

            1           2           3           4           5           6           7           8           9          10
 ........................................................................................................................
   1    9.997       8.887       7.776       6.666       5.555       4.445       3.335       2.224       1.114      3.3313E-03
   2    9.997       8.887       7.776       6.666       5.555       4.445       3.335       2.224       1.114      3.3313E-03
   3    9.997       8.887       7.776       6.666       5.555       4.445       3.335       2.224       1.114      3.3313E-03
   4    9.997       8.887       7.776       6.666       5.555       4.445       3.335       2.224       1.114      3.3313E-03
   5    9.997       8.887       7.776       6.666       5.555       4.445       3.335       2.224       1.114      3.3313E-03
   6    9.997       8.887       7.776       6.666       5.555       4.445       3.335       2.224       1.114      3.3313E-03
   7    9.997       8.887       7.776       6.666       5.555       4.445       3.335       2.224       1.114      3.3313E-03
   8    9.997       8.887       7.776       6.666       5.555       4.445       3.335       2.224       1.114      3.3313E-03
   9    9.997       8.887       7.776       6.666       5.555       4.445       3.335       2.224       1.114      3.3313E-03
  10    9.997       8.887       7.776       6.666       5.555       4.445       3.335       2.224       1.114      3.3313E-03
1
              HEAD IN LAYER   2 AT END OF TIME STEP  68 IN STRESS PERIOD    3
  ---------------------------------------------------------------------------

            1           2           3           4           5           6           7           8           9          10
 ........................................................................................................................
   1    9.997       8.887       7.776       6.666       5.555       4.445       3.335       2.224       1.114      3.3313E-03
   2    9.997       8.887       7.776       6.666       5.555       4.445       3.335       2.224       1.114      3.3313E-03
   3    9.997       8.887       7.776       6.666       5.555       4.445       3.335       2.224       1.114      3.3313E-03
   4    9.997       8.887       7.776       6.666       5.555       4.445       3.335       2.224       1.114      3.3313E-03
   5    9.997       8.887       7.776       6.666       5.555       4.445       3.335       2.224       1.114      3.3313E-03
   6    9.997       8.887       7.776       6.666       5.555       4.445       3.335       2.224       1.114      3.3313E-03
   7    9.997       8.887       7.776       6.666       5.555       4.445       3.335       2.224       1.114      3.3313E-03
   8    9.997       8.887       7.776       6.666       5.555       4.445       3.335       2.224       1.114      3.3313E-03
   9    9.997       8.887       7.776       6.666       5.555       4.445       3.335       2.224       1.114      3.3313E-03
  10    9.997       8.887       7.776       6.666       5.555       4.445       3.335       2.224       1.114      3.3313E-03
1
              HEAD IN LAYER   3 AT END OF TIME STEP  68 IN STRESS PERIOD    3
  ---------------------------------------------------------------------------

            1           2           3           4           5           6           7           8           9          10
 ........................................................................................................................
   1    9.997       8.887       7.776       6.666       5.555       4.445       3.335       2.224       1.114      3.3313E-03
   2    9.997       8.887       7.776       6.666       5.555       4.445       3.335       2.224       1.114      3.3313E-03
   3    9.997       8.887       7.776       6.666       5.555       4.445       3.335       2.224       1.114      3.3313E-03
   4    9.997       8.887       7.776       6.666       5.555       4.445       3.335       2.224       1.114      3.3313E-03
   5    9.997       8.887       7.776       6.666       5.555       4.445       3.335       2.224       1.114      3.3313E-03
   6    9.997       8.887       7.776       6.666       5.555       4.445       3.335       2.224       1.114      3.3313E-03
   7    9.997       8.887       7.776       6.666       5.555       4.445       3.335       2.224       1.114      3.3313E-03
   8    9.997       8.887       7.776       6.666       5.555       4.445       3.335       2.224       1.114      3.3313E-03
   9    9.997       8.887       7.776       6.666       5.555       4.445       3.335       2.224       1.114      3.3313E-03
  10    9.997       8.887       7.776       6.666       5.555       4.445       3.335       2.224       1.114      3.3313E-03
1
              HEAD IN LAYER   4 AT END OF TIME STEP  68 IN STRESS PERIOD    3
  ---------------------------------------------------------------------------

            1           2           3           4           5           6           7           8           9          10
 ........................................................................................................................
   1    9.997       8.887       7.776       6.666       5.555       4.445       3.335       2.224       1.114      3.3313E-03
   2    9.997       8.887       7.776       6.666       5.555       4.445       3.335       2.224       1.114      3.3313E-03
   3    9.997       8.887       7.776       6.666       5.555       4.445       3.335       2.224       1.114      3.3313E-03
   4    9.997       8.887       7.776       6.666       5.555       4.445       3.335       2.224       1.114      3.3313E-03
   5    9.997       8.887       7.776       6.666       5.555       4.445       3.335       2.224       1.114      3.3313E-03
   6    9.997       8.887       7.776       6.666       5.555       4.445       3.335       2.224       1.114      3.3313E-03
   7    9.997       8.887       7.776       6.666       5.555       4.445       3.335       2.224       1.114      3.3313E-03
   8    9.997       8.887       7.776       6.666       5.555       4.445       3.335       2.224       1.114      3.3313E-03
   9    9.997       8.887       7.776       6.666       5.555       4.445       3.335       2.224       1.114      3.3313E-03
  10    9.997       8.887       7.776       6.666       5.555       4.445       3.335       2.224       1.114      3.3313E-03

 HEAD WILL BE SAVED ON UNIT   51 AT END OF TIME STEP   68, STRESS PERIOD    3

 DRAWDOWN WILL BE SAVED ON UNIT   52 AT END OF TIME STEP   68, STRESS PERIOD    3
1
  VOLUMETRIC BUDGET FOR ENTIRE MODEL AT END OF TIME STEP   68, STRESS PERIOD   3
  ------------------------------------------------------------------------------

     CUMULATIVE VOLUMES      L**3       RATES FOR THIS TIME STEP      L**3/T
     ------------------                 ------------------------

           IN:                                      IN:
           ---                                      ---
             STORAGE =       1.0477E-08               STORAGE =           0.0000
       CONSTANT HEAD =           0.0000         CONSTANT HEAD =           0.0000
               WELLS =           0.0000                 WELLS =           0.0000
     HEAD DEP BOUNDS =      112606.7578       HEAD DEP BOUNDS =         666.3123

            TOTAL IN =      112606.7578              TOTAL IN =         666.3123

          OUT:                                     OUT:
          ----                                     ----
             STORAGE =       5.2387E-08               STORAGE =           0.0000
       CONSTANT HEAD =           0.0000         CONSTANT HEAD =           0.0000
               WELLS =           0.0000                 WELLS =           0.0000
     HEAD DEP BOUNDS =      112597.6641       HEAD DEP BOUNDS =         666.2595

           TOTAL OUT =      112597.6641             TOTAL OUT =         666.2595

            IN - OUT =           9.0938              IN - OUT =       5.2795E-02

 PERCENT DISCREPANCY =           0.01     PERCENT DISCREPANCY =           0.01






         TIME SUMMARY AT END OF TIME STEP   68 IN STRESS PERIOD    3
                    SECONDS     MINUTES      HOURS       DAYS        YEARS
                    -----------------------------------------------------------
   TIME STEP LENGTH  86400.      1440.0      24.000      1.0000     2.73785E-03
 STRESS PERIOD TIME 5.87520E+06  97920.      1632.0      68.000     0.18617    
         TOTAL TIME 1.46016E+07 2.43360E+05  4056.0      169.00     0.46270    
1
 
 SOLVING FOR HEAD 

 OUTPUT CONTROL FOR STRESS PERIOD    3   TIME STEP   69
    SAVE HEAD FOR ALL LAYERS
    SAVE DRAWDOWN FOR ALL LAYERS
    SAVE BUDGET
    PRINT HEAD FOR ALL LAYERS
    PRINT BUDGET
 UBDSV1 SAVING "         STORAGE" ON UNIT  53 AT TIME STEP 69, STRESS PERIOD   3
 UBDSV2 SAVING "   CONSTANT HEAD" ON UNIT  53 AT TIME STEP 69, STRESS PERIOD   3
 UBDSV1 SAVING "FLOW RIGHT FACE " ON UNIT  53 AT TIME STEP 69, STRESS PERIOD   3
 UBDSV1 SAVING "FLOW FRONT FACE " ON UNIT  53 AT TIME STEP 69, STRESS PERIOD   3
 UBDSV1 SAVING "FLOW LOWER FACE " ON UNIT  53 AT TIME STEP 69, STRESS PERIOD   3
1
              HEAD IN LAYER   1 AT END OF TIME STEP  69 IN STRESS PERIOD    3
  ---------------------------------------------------------------------------

            1           2           3           4           5           6           7           8           9          10
 ........................................................................................................................
   1    9.997       8.887       7.776       6.666       5.555       4.445       3.335       2.224       1.114      3.3313E-03
   2    9.997       8.887       7.776       6.666       5.555       4.445       3.335       2.224       1.114      3.3313E-03
   3    9.997       8.887       7.776       6.666       5.555       4.445       3.335       2.224       1.114      3.3313E-03
   4    9.997       8.887       7.776       6.666       5.555       4.445       3.335       2.224       1.114      3.3313E-03
   5    9.997       8.887       7.776       6.666       5.555       4.445       3.335       2.224       1.114      3.3313E-03
   6    9.997       8.887       7.776       6.666       5.555       4.445       3.335       2.224       1.114      3.3313E-03
   7    9.997       8.887       7.776       6.666       5.555       4.445       3.335       2.224       1.114      3.3313E-03
   8    9.997       8.887       7.776       6.666       5.555       4.445       3.335       2.224       1.114      3.3313E-03
   9    9.997       8.887       7.776       6.666       5.555       4.445       3.335       2.224       1.114      3.3313E-03
  10    9.997       8.887       7.776       6.666       5.555       4.445       3.335       2.224       1.114      3.3313E-03
1
              HEAD IN LAYER   2 AT END OF TIME STEP  69 IN STRESS PERIOD    3
  ---------------------------------------------------------------------------

            1           2           3           4           5           6           7           8           9          10
 ........................................................................................................................
   1    9.997       8.887       7.776       6.666       5.555       4.445       3.335       2.224       1.114      3.3313E-03
   2    9.997       8.887       7.776       6.666       5.555       4.445       3.335       2.224       1.114      3.3313E-03
   3    9.997       8.887       7.776       6.666       5.555       4.445       3.335       2.224       1.114      3.3313E-03
   4    9.997       8.887       7.776       6.666       5.555       4.445       3.335       2.224       1.114      3.3313E-03
   5    9.997       8.887       7.776       6.666       5.555       4.445       3.335       2.224       1.114      3.3313E-03
   6    9.997       8.887       7.776       6.666       5.555       4.445       3.335       2.224       1.114      3.3313E-03
   7    9.997       8.887       7.776       6.666       5.555       4.445       3.335       2.224       1.114      3.3313E-03
   8    9.997       8.887       7.776       6.666       5.555       4.445       3.335       2.224       1.114      3.3313E-03
   9    9.997       8.887       7.776       6.666       5.555       4.445       3.335       2.224       1.114      3.3313E-03
  10    9.997       8.887       7.776       6.666       5.555       4.445       3.335       2.224       1.114      3.3313E-03
1
              HEAD IN LAYER   3 AT END OF TIME STEP  69 IN STRESS PERIOD    3
  ---------------------------------------------------------------------------

            1           2           3           4           5           6           7           8           9          10
 ........................................................................................................................
   1    9.997       8.887       7.776       6.666       5.555       4.445       3.335       2.224       1.114      3.3313E-03
   2    9.997       8.887       7.776       6.666       5.555       4.445       3.335       2.224       1.114      3.3313E-03
   3    9.997       8.887       7.776       6.666       5.555       4.445       3.335       2.224       1.114      3.3313E-03
   4    9.997       8.887       7.776       6.666       5.555       4.445       3.335       2.224       1.114      3.3313E-03
   5    9.997       8.887       7.776       6.666       5.555       4.445       3.335       2.224       1.114      3.3313E-03
   6    9.997       8.887       7.776       6.666       5.555       4.445       3.335       2.224       1.114      3.3313E-03
   7    9.997       8.887       7.776       6.666       5.555       4.445       3.335       2.224       1.114      3.3313E-03
   8    9.997       8.887       7.776       6.666       5.555       4.445       3.335       2.224       1.114      3.3313E-03
   9    9.997       8.887       7.776       6.666       5.555       4.445       3.335       2.224       1.114      3.3313E-03
  10    9.997       8.887       7.776       6.666       5.555       4.445       3.335       2.224       1.114      3.3313E-03
1
              HEAD IN LAYER   4 AT END OF TIME STEP  69 IN STRESS PERIOD    3
  ---------------------------------------------------------------------------

            1           2           3           4           5           6           7           8           9          10
 ........................................................................................................................
   1    9.997       8.887       7.776       6.666       5.555       4.445       3.335       2.224       1.114      3.3313E-03
   2    9.997       8.887       7.776       6.666       5.555       4.445       3.335       2.224       1.114      3.3313E-03
   3    9.997       8.887       7.776       6.666       5.555       4.445       3.335       2.224       1.114      3.3313E-03
   4    9.997       8.887       7.776       6.666       5.555       4.445       3.335       2.224       1.114      3.3313E-03
   5    9.997       8.887       7.776       6.666       5.555       4.445       3.335       2.224       1.114      3.3313E-03
   6    9.997       8.887       7.776       6.666       5.555       4.445       3.335       2.224       1.114      3.3313E-03
   7    9.997       8.887       7.776       6.666       5.555       4.445       3.335       2.224       1.114      3.3313E-03
   8    9.997       8.887       7.776       6.666       5.555       4.445       3.335       2.224       1.114      3.3313E-03
   9    9.997       8.887       7.776       6.666       5.555       4.445       3.335       2.224       1.114      3.3313E-03
  10    9.997       8.887       7.776       6.666       5.555       4.445       3.335       2.224       1.114      3.3313E-03

 HEAD WILL BE SAVED ON UNIT   51 AT END OF TIME STEP   69, STRESS PERIOD    3

 DRAWDOWN WILL BE SAVED ON UNIT   52 AT END OF TIME STEP   69, STRESS PERIOD    3
1
  VOLUMETRIC BUDGET FOR ENTIRE MODEL AT END OF TIME STEP   69, STRESS PERIOD   3
  ------------------------------------------------------------------------------

     CUMULATIVE VOLUMES      L**3       RATES FOR THIS TIME STEP      L**3/T
     ------------------                 ------------------------

           IN:                                      IN:
           ---                                      ---
             STORAGE =       1.0477E-08               STORAGE =           0.0000
       CONSTANT HEAD =           0.0000         CONSTANT HEAD =           0.0000
               WELLS =           0.0000                 WELLS =           0.0000
     HEAD DEP BOUNDS =      113273.0703       HEAD DEP BOUNDS =         666.3123

            TOTAL IN =      113273.0703              TOTAL IN =         666.3123

          OUT:                                     OUT:
          ----                                     ----
             STORAGE =       5.2387E-08               STORAGE =           0.0000
       CONSTANT HEAD =           0.0000         CONSTANT HEAD =           0.0000
               WELLS =           0.0000                 WELLS =           0.0000
     HEAD DEP BOUNDS =      113263.9219       HEAD DEP BOUNDS =         666.2595

           TOTAL OUT =      113263.9219             TOTAL OUT =         666.2595

            IN - OUT =           9.1484              IN - OUT =       5.2795E-02

 PERCENT DISCREPANCY =           0.01     PERCENT DISCREPANCY =           0.01






         TIME SUMMARY AT END OF TIME STEP   69 IN STRESS PERIOD    3
                    SECONDS     MINUTES      HOURS       DAYS        YEARS
                    -----------------------------------------------------------
   TIME STEP LENGTH  86400.      1440.0      24.000      1.0000     2.73785E-03
 STRESS PERIOD TIME 5.96160E+06  99360.      1656.0      69.000     0.18891    
         TOTAL TIME 1.46880E+07 2.44800E+05  4080.0      170.00     0.46543    
1
 
 SOLVING FOR HEAD 

 OUTPUT CONTROL FOR STRESS PERIOD    3   TIME STEP   70
    SAVE HEAD FOR ALL LAYERS
    SAVE DRAWDOWN FOR ALL LAYERS
    SAVE BUDGET
    PRINT HEAD FOR ALL LAYERS
    PRINT BUDGET
 UBDSV1 SAVING "         STORAGE" ON UNIT  53 AT TIME STEP 70, STRESS PERIOD   3
 UBDSV2 SAVING "   CONSTANT HEAD" ON UNIT  53 AT TIME STEP 70, STRESS PERIOD   3
 UBDSV1 SAVING "FLOW RIGHT FACE " ON UNIT  53 AT TIME STEP 70, STRESS PERIOD   3
 UBDSV1 SAVING "FLOW FRONT FACE " ON UNIT  53 AT TIME STEP 70, STRESS PERIOD   3
 UBDSV1 SAVING "FLOW LOWER FACE " ON UNIT  53 AT TIME STEP 70, STRESS PERIOD   3
1
              HEAD IN LAYER   1 AT END OF TIME STEP  70 IN STRESS PERIOD    3
  ---------------------------------------------------------------------------

            1           2           3           4           5           6           7           8           9          10
 ........................................................................................................................
   1    9.997       8.887       7.776       6.666       5.555       4.445       3.335       2.224       1.114      3.3313E-03
   2    9.997       8.887       7.776       6.666       5.555       4.445       3.335       2.224       1.114      3.3313E-03
   3    9.997       8.887       7.776       6.666       5.555       4.445       3.335       2.224       1.114      3.3313E-03
   4    9.997       8.887       7.776       6.666       5.555       4.445       3.335       2.224       1.114      3.3313E-03
   5    9.997       8.887       7.776       6.666       5.555       4.445       3.335       2.224       1.114      3.3313E-03
   6    9.997       8.887       7.776       6.666       5.555       4.445       3.335       2.224       1.114      3.3313E-03
   7    9.997       8.887       7.776       6.666       5.555       4.445       3.335       2.224       1.114      3.3313E-03
   8    9.997       8.887       7.776       6.666       5.555       4.445       3.335       2.224       1.114      3.3313E-03
   9    9.997       8.887       7.776       6.666       5.555       4.445       3.335       2.224       1.114      3.3313E-03
  10    9.997       8.887       7.776       6.666       5.555       4.445       3.335       2.224       1.114      3.3313E-03
1
              HEAD IN LAYER   2 AT END OF TIME STEP  70 IN STRESS PERIOD    3
  ---------------------------------------------------------------------------

            1           2           3           4           5           6           7           8           9          10
 ........................................................................................................................
   1    9.997       8.887       7.776       6.666       5.555       4.445       3.335       2.224       1.114      3.3313E-03
   2    9.997       8.887       7.776       6.666       5.555       4.445       3.335       2.224       1.114      3.3313E-03
   3    9.997       8.887       7.776       6.666       5.555       4.445       3.335       2.224       1.114      3.3313E-03
   4    9.997       8.887       7.776       6.666       5.555       4.445       3.335       2.224       1.114      3.3313E-03
   5    9.997       8.887       7.776       6.666       5.555       4.445       3.335       2.224       1.114      3.3313E-03
   6    9.997       8.887       7.776       6.666       5.555       4.445       3.335       2.224       1.114      3.3313E-03
   7    9.997       8.887       7.776       6.666       5.555       4.445       3.335       2.224       1.114      3.3313E-03
   8    9.997       8.887       7.776       6.666       5.555       4.445       3.335       2.224       1.114      3.3313E-03
   9    9.997       8.887       7.776       6.666       5.555       4.445       3.335       2.224       1.114      3.3313E-03
  10    9.997       8.887       7.776       6.666       5.555       4.445       3.335       2.224       1.114      3.3313E-03
1
              HEAD IN LAYER   3 AT END OF TIME STEP  70 IN STRESS PERIOD    3
  ---------------------------------------------------------------------------

            1           2           3           4           5           6           7           8           9          10
 ........................................................................................................................
   1    9.997       8.887       7.776       6.666       5.555       4.445       3.335       2.224       1.114      3.3313E-03
   2    9.997       8.887       7.776       6.666       5.555       4.445       3.335       2.224       1.114      3.3313E-03
   3    9.997       8.887       7.776       6.666       5.555       4.445       3.335       2.224       1.114      3.3313E-03
   4    9.997       8.887       7.776       6.666       5.555       4.445       3.335       2.224       1.114      3.3313E-03
   5    9.997       8.887       7.776       6.666       5.555       4.445       3.335       2.224       1.114      3.3313E-03
   6    9.997       8.887       7.776       6.666       5.555       4.445       3.335       2.224       1.114      3.3313E-03
   7    9.997       8.887       7.776       6.666       5.555       4.445       3.335       2.224       1.114      3.3313E-03
   8    9.997       8.887       7.776       6.666       5.555       4.445       3.335       2.224       1.114      3.3313E-03
   9    9.997       8.887       7.776       6.666       5.555       4.445       3.335       2.224       1.114      3.3313E-03
  10    9.997       8.887       7.776       6.666       5.555       4.445       3.335       2.224       1.114      3.3313E-03
1
              HEAD IN LAYER   4 AT END OF TIME STEP  70 IN STRESS PERIOD    3
  ---------------------------------------------------------------------------

            1           2           3           4           5           6           7           8           9          10
 ........................................................................................................................
   1    9.997       8.887       7.776       6.666       5.555       4.445       3.335       2.224       1.114      3.3313E-03
   2    9.997       8.887       7.776       6.666       5.555       4.445       3.335       2.224       1.114      3.3313E-03
   3    9.997       8.887       7.776       6.666       5.555       4.445       3.335       2.224       1.114      3.3313E-03
   4    9.997       8.887       7.776       6.666       5.555       4.445       3.335       2.224       1.114      3.3313E-03
   5    9.997       8.887       7.776       6.666       5.555       4.445       3.335       2.224       1.114      3.3313E-03
   6    9.997       8.887       7.776       6.666       5.555       4.445       3.335       2.224       1.114      3.3313E-03
   7    9.997       8.887       7.776       6.666       5.555       4.445       3.335       2.224       1.114      3.3313E-03
   8    9.997       8.887       7.776       6.666       5.555       4.445       3.335       2.224       1.114      3.3313E-03
   9    9.997       8.887       7.776       6.666       5.555       4.445       3.335       2.224       1.114      3.3313E-03
  10    9.997       8.887       7.776       6.666       5.555       4.445       3.335       2.224       1.114      3.3313E-03

 HEAD WILL BE SAVED ON UNIT   51 AT END OF TIME STEP   70, STRESS PERIOD    3

 DRAWDOWN WILL BE SAVED ON UNIT   52 AT END OF TIME STEP   70, STRESS PERIOD    3
1
  VOLUMETRIC BUDGET FOR ENTIRE MODEL AT END OF TIME STEP   70, STRESS PERIOD   3
  ------------------------------------------------------------------------------

     CUMULATIVE VOLUMES      L**3       RATES FOR THIS TIME STEP      L**3/T
     ------------------                 ------------------------

           IN:                                      IN:
           ---                                      ---
             STORAGE =       1.0477E-08               STORAGE =           0.0000
       CONSTANT HEAD =           0.0000         CONSTANT HEAD =           0.0000
               WELLS =           0.0000                 WELLS =           0.0000
     HEAD DEP BOUNDS =      113939.3828       HEAD DEP BOUNDS =         666.3123

            TOTAL IN =      113939.3828              TOTAL IN =         666.3123

          OUT:                                     OUT:
          ----                                     ----
             STORAGE =       5.2387E-08               STORAGE =           0.0000
       CONSTANT HEAD =           0.0000         CONSTANT HEAD =           0.0000
               WELLS =           0.0000                 WELLS =           0.0000
     HEAD DEP BOUNDS =      113930.1797       HEAD DEP BOUNDS =         666.2595

           TOTAL OUT =      113930.1797             TOTAL OUT =         666.2595

            IN - OUT =           9.2031              IN - OUT =       5.2795E-02

 PERCENT DISCREPANCY =           0.01     PERCENT DISCREPANCY =           0.01






         TIME SUMMARY AT END OF TIME STEP   70 IN STRESS PERIOD    3
                    SECONDS     MINUTES      HOURS       DAYS        YEARS
                    -----------------------------------------------------------
   TIME STEP LENGTH  86400.      1440.0      24.000      1.0000     2.73785E-03
 STRESS PERIOD TIME 6.04800E+06 1.00800E+05  1680.0      70.000     0.19165    
         TOTAL TIME 1.47744E+07 2.46240E+05  4104.0      171.00     0.46817    
1
 
 SOLVING FOR HEAD 

 OUTPUT CONTROL FOR STRESS PERIOD    3   TIME STEP   71
    SAVE HEAD FOR ALL LAYERS
    SAVE DRAWDOWN FOR ALL LAYERS
    SAVE BUDGET
    PRINT HEAD FOR ALL LAYERS
    PRINT BUDGET
 UBDSV1 SAVING "         STORAGE" ON UNIT  53 AT TIME STEP 71, STRESS PERIOD   3
 UBDSV2 SAVING "   CONSTANT HEAD" ON UNIT  53 AT TIME STEP 71, STRESS PERIOD   3
 UBDSV1 SAVING "FLOW RIGHT FACE " ON UNIT  53 AT TIME STEP 71, STRESS PERIOD   3
 UBDSV1 SAVING "FLOW FRONT FACE " ON UNIT  53 AT TIME STEP 71, STRESS PERIOD   3
 UBDSV1 SAVING "FLOW LOWER FACE " ON UNIT  53 AT TIME STEP 71, STRESS PERIOD   3
1
              HEAD IN LAYER   1 AT END OF TIME STEP  71 IN STRESS PERIOD    3
  ---------------------------------------------------------------------------

            1           2           3           4           5           6           7           8           9          10
 ........................................................................................................................
   1    9.997       8.887       7.776       6.666       5.555       4.445       3.335       2.224       1.114      3.3313E-03
   2    9.997       8.887       7.776       6.666       5.555       4.445       3.335       2.224       1.114      3.3313E-03
   3    9.997       8.887       7.776       6.666       5.555       4.445       3.335       2.224       1.114      3.3313E-03
   4    9.997       8.887       7.776       6.666       5.555       4.445       3.335       2.224       1.114      3.3313E-03
   5    9.997       8.887       7.776       6.666       5.555       4.445       3.335       2.224       1.114      3.3313E-03
   6    9.997       8.887       7.776       6.666       5.555       4.445       3.335       2.224       1.114      3.3313E-03
   7    9.997       8.887       7.776       6.666       5.555       4.445       3.335       2.224       1.114      3.3313E-03
   8    9.997       8.887       7.776       6.666       5.555       4.445       3.335       2.224       1.114      3.3313E-03
   9    9.997       8.887       7.776       6.666       5.555       4.445       3.335       2.224       1.114      3.3313E-03
  10    9.997       8.887       7.776       6.666       5.555       4.445       3.335       2.224       1.114      3.3313E-03
1
              HEAD IN LAYER   2 AT END OF TIME STEP  71 IN STRESS PERIOD    3
  ---------------------------------------------------------------------------

            1           2           3           4           5           6           7           8           9          10
 ........................................................................................................................
   1    9.997       8.887       7.776       6.666       5.555       4.445       3.335       2.224       1.114      3.3313E-03
   2    9.997       8.887       7.776       6.666       5.555       4.445       3.335       2.224       1.114      3.3313E-03
   3    9.997       8.887       7.776       6.666       5.555       4.445       3.335       2.224       1.114      3.3313E-03
   4    9.997       8.887       7.776       6.666       5.555       4.445       3.335       2.224       1.114      3.3313E-03
   5    9.997       8.887       7.776       6.666       5.555       4.445       3.335       2.224       1.114      3.3313E-03
   6    9.997       8.887       7.776       6.666       5.555       4.445       3.335       2.224       1.114      3.3313E-03
   7    9.997       8.887       7.776       6.666       5.555       4.445       3.335       2.224       1.114      3.3313E-03
   8    9.997       8.887       7.776       6.666       5.555       4.445       3.335       2.224       1.114      3.3313E-03
   9    9.997       8.887       7.776       6.666       5.555       4.445       3.335       2.224       1.114      3.3313E-03
  10    9.997       8.887       7.776       6.666       5.555       4.445       3.335       2.224       1.114      3.3313E-03
1
              HEAD IN LAYER   3 AT END OF TIME STEP  71 IN STRESS PERIOD    3
  ---------------------------------------------------------------------------

            1           2           3           4           5           6           7           8           9          10
 ........................................................................................................................
   1    9.997       8.887       7.776       6.666       5.555       4.445       3.335       2.224       1.114      3.3313E-03
   2    9.997       8.887       7.776       6.666       5.555       4.445       3.335       2.224       1.114      3.3313E-03
   3    9.997       8.887       7.776       6.666       5.555       4.445       3.335       2.224       1.114      3.3313E-03
   4    9.997       8.887       7.776       6.666       5.555       4.445       3.335       2.224       1.114      3.3313E-03
   5    9.997       8.887       7.776       6.666       5.555       4.445       3.335       2.224       1.114      3.3313E-03
   6    9.997       8.887       7.776       6.666       5.555       4.445       3.335       2.224       1.114      3.3313E-03
   7    9.997       8.887       7.776       6.666       5.555       4.445       3.335       2.224       1.114      3.3313E-03
   8    9.997       8.887       7.776       6.666       5.555       4.445       3.335       2.224       1.114      3.3313E-03
   9    9.997       8.887       7.776       6.666       5.555       4.445       3.335       2.224       1.114      3.3313E-03
  10    9.997       8.887       7.776       6.666       5.555       4.445       3.335       2.224       1.114      3.3313E-03
1
              HEAD IN LAYER   4 AT END OF TIME STEP  71 IN STRESS PERIOD    3
  ---------------------------------------------------------------------------

            1           2           3           4           5           6           7           8           9          10
 ........................................................................................................................
   1    9.997       8.887       7.776       6.666       5.555       4.445       3.335       2.224       1.114      3.3313E-03
   2    9.997       8.887       7.776       6.666       5.555       4.445       3.335       2.224       1.114      3.3313E-03
   3    9.997       8.887       7.776       6.666       5.555       4.445       3.335       2.224       1.114      3.3313E-03
   4    9.997       8.887       7.776       6.666       5.555       4.445       3.335       2.224       1.114      3.3313E-03
   5    9.997       8.887       7.776       6.666       5.555       4.445       3.335       2.224       1.114      3.3313E-03
   6    9.997       8.887       7.776       6.666       5.555       4.445       3.335       2.224       1.114      3.3313E-03
   7    9.997       8.887       7.776       6.666       5.555       4.445       3.335       2.224       1.114      3.3313E-03
   8    9.997       8.887       7.776       6.666       5.555       4.445       3.335       2.224       1.114      3.3313E-03
   9    9.997       8.887       7.776       6.666       5.555       4.445       3.335       2.224       1.114      3.3313E-03
  10    9.997       8.887       7.776       6.666       5.555       4.445       3.335       2.224       1.114      3.3313E-03

 HEAD WILL BE SAVED ON UNIT   51 AT END OF TIME STEP   71, STRESS PERIOD    3

 DRAWDOWN WILL BE SAVED ON UNIT   52 AT END OF TIME STEP   71, STRESS PERIOD    3
1
  VOLUMETRIC BUDGET FOR ENTIRE MODEL AT END OF TIME STEP   71, STRESS PERIOD   3
  ------------------------------------------------------------------------------

     CUMULATIVE VOLUMES      L**3       RATES FOR THIS TIME STEP      L**3/T
     ------------------                 ------------------------

           IN:                                      IN:
           ---                                      ---
             STORAGE =       1.0477E-08               STORAGE =           0.0000
       CONSTANT HEAD =           0.0000         CONSTANT HEAD =           0.0000
               WELLS =           0.0000                 WELLS =           0.0000
     HEAD DEP BOUNDS =      114605.6953       HEAD DEP BOUNDS =         666.3123

            TOTAL IN =      114605.6953              TOTAL IN =         666.3123

          OUT:                                     OUT:
          ----                                     ----
             STORAGE =       5.2387E-08               STORAGE =           0.0000
       CONSTANT HEAD =           0.0000         CONSTANT HEAD =           0.0000
               WELLS =           0.0000                 WELLS =           0.0000
     HEAD DEP BOUNDS =      114596.4375       HEAD DEP BOUNDS =         666.2595

           TOTAL OUT =      114596.4375             TOTAL OUT =         666.2595

            IN - OUT =           9.2578              IN - OUT =       5.2795E-02

 PERCENT DISCREPANCY =           0.01     PERCENT DISCREPANCY =           0.01






         TIME SUMMARY AT END OF TIME STEP   71 IN STRESS PERIOD    3
                    SECONDS     MINUTES      HOURS       DAYS        YEARS
                    -----------------------------------------------------------
   TIME STEP LENGTH  86400.      1440.0      24.000      1.0000     2.73785E-03
 STRESS PERIOD TIME 6.13440E+06 1.02240E+05  1704.0      71.000     0.19439    
         TOTAL TIME 1.48608E+07 2.47680E+05  4128.0      172.00     0.47091    
1
 
 SOLVING FOR HEAD 

 OUTPUT CONTROL FOR STRESS PERIOD    3   TIME STEP   72
    SAVE HEAD FOR ALL LAYERS
    SAVE DRAWDOWN FOR ALL LAYERS
    SAVE BUDGET
    PRINT HEAD FOR ALL LAYERS
    PRINT BUDGET
 UBDSV1 SAVING "         STORAGE" ON UNIT  53 AT TIME STEP 72, STRESS PERIOD   3
 UBDSV2 SAVING "   CONSTANT HEAD" ON UNIT  53 AT TIME STEP 72, STRESS PERIOD   3
 UBDSV1 SAVING "FLOW RIGHT FACE " ON UNIT  53 AT TIME STEP 72, STRESS PERIOD   3
 UBDSV1 SAVING "FLOW FRONT FACE " ON UNIT  53 AT TIME STEP 72, STRESS PERIOD   3
 UBDSV1 SAVING "FLOW LOWER FACE " ON UNIT  53 AT TIME STEP 72, STRESS PERIOD   3
1
              HEAD IN LAYER   1 AT END OF TIME STEP  72 IN STRESS PERIOD    3
  ---------------------------------------------------------------------------

            1           2           3           4           5           6           7           8           9          10
 ........................................................................................................................
   1    9.997       8.887       7.776       6.666       5.555       4.445       3.335       2.224       1.114      3.3313E-03
   2    9.997       8.887       7.776       6.666       5.555       4.445       3.335       2.224       1.114      3.3313E-03
   3    9.997       8.887       7.776       6.666       5.555       4.445       3.335       2.224       1.114      3.3313E-03
   4    9.997       8.887       7.776       6.666       5.555       4.445       3.335       2.224       1.114      3.3313E-03
   5    9.997       8.887       7.776       6.666       5.555       4.445       3.335       2.224       1.114      3.3313E-03
   6    9.997       8.887       7.776       6.666       5.555       4.445       3.335       2.224       1.114      3.3313E-03
   7    9.997       8.887       7.776       6.666       5.555       4.445       3.335       2.224       1.114      3.3313E-03
   8    9.997       8.887       7.776       6.666       5.555       4.445       3.335       2.224       1.114      3.3313E-03
   9    9.997       8.887       7.776       6.666       5.555       4.445       3.335       2.224       1.114      3.3313E-03
  10    9.997       8.887       7.776       6.666       5.555       4.445       3.335       2.224       1.114      3.3313E-03
1
              HEAD IN LAYER   2 AT END OF TIME STEP  72 IN STRESS PERIOD    3
  ---------------------------------------------------------------------------

            1           2           3           4           5           6           7           8           9          10
 ........................................................................................................................
   1    9.997       8.887       7.776       6.666       5.555       4.445       3.335       2.224       1.114      3.3313E-03
   2    9.997       8.887       7.776       6.666       5.555       4.445       3.335       2.224       1.114      3.3313E-03
   3    9.997       8.887       7.776       6.666       5.555       4.445       3.335       2.224       1.114      3.3313E-03
   4    9.997       8.887       7.776       6.666       5.555       4.445       3.335       2.224       1.114      3.3313E-03
   5    9.997       8.887       7.776       6.666       5.555       4.445       3.335       2.224       1.114      3.3313E-03
   6    9.997       8.887       7.776       6.666       5.555       4.445       3.335       2.224       1.114      3.3313E-03
   7    9.997       8.887       7.776       6.666       5.555       4.445       3.335       2.224       1.114      3.3313E-03
   8    9.997       8.887       7.776       6.666       5.555       4.445       3.335       2.224       1.114      3.3313E-03
   9    9.997       8.887       7.776       6.666       5.555       4.445       3.335       2.224       1.114      3.3313E-03
  10    9.997       8.887       7.776       6.666       5.555       4.445       3.335       2.224       1.114      3.3313E-03
1
              HEAD IN LAYER   3 AT END OF TIME STEP  72 IN STRESS PERIOD    3
  ---------------------------------------------------------------------------

            1           2           3           4           5           6           7           8           9          10
 ........................................................................................................................
   1    9.997       8.887       7.776       6.666       5.555       4.445       3.335       2.224       1.114      3.3313E-03
   2    9.997       8.887       7.776       6.666       5.555       4.445       3.335       2.224       1.114      3.3313E-03
   3    9.997       8.887       7.776       6.666       5.555       4.445       3.335       2.224       1.114      3.3313E-03
   4    9.997       8.887       7.776       6.666       5.555       4.445       3.335       2.224       1.114      3.3313E-03
   5    9.997       8.887       7.776       6.666       5.555       4.445       3.335       2.224       1.114      3.3313E-03
   6    9.997       8.887       7.776       6.666       5.555       4.445       3.335       2.224       1.114      3.3313E-03
   7    9.997       8.887       7.776       6.666       5.555       4.445       3.335       2.224       1.114      3.3313E-03
   8    9.997       8.887       7.776       6.666       5.555       4.445       3.335       2.224       1.114      3.3313E-03
   9    9.997       8.887       7.776       6.666       5.555       4.445       3.335       2.224       1.114      3.3313E-03
  10    9.997       8.887       7.776       6.666       5.555       4.445       3.335       2.224       1.114      3.3313E-03
1
              HEAD IN LAYER   4 AT END OF TIME STEP  72 IN STRESS PERIOD    3
  ---------------------------------------------------------------------------

            1           2           3           4           5           6           7           8           9          10
 ........................................................................................................................
   1    9.997       8.887       7.776       6.666       5.555       4.445       3.335       2.224       1.114      3.3313E-03
   2    9.997       8.887       7.776       6.666       5.555       4.445       3.335       2.224       1.114      3.3313E-03
   3    9.997       8.887       7.776       6.666       5.555       4.445       3.335       2.224       1.114      3.3313E-03
   4    9.997       8.887       7.776       6.666       5.555       4.445       3.335       2.224       1.114      3.3313E-03
   5    9.997       8.887       7.776       6.666       5.555       4.445       3.335       2.224       1.114      3.3313E-03
   6    9.997       8.887       7.776       6.666       5.555       4.445       3.335       2.224       1.114      3.3313E-03
   7    9.997       8.887       7.776       6.666       5.555       4.445       3.335       2.224       1.114      3.3313E-03
   8    9.997       8.887       7.776       6.666       5.555       4.445       3.335       2.224       1.114      3.3313E-03
   9    9.997       8.887       7.776       6.666       5.555       4.445       3.335       2.224       1.114      3.3313E-03
  10    9.997       8.887       7.776       6.666       5.555       4.445       3.335       2.224       1.114      3.3313E-03

 HEAD WILL BE SAVED ON UNIT   51 AT END OF TIME STEP   72, STRESS PERIOD    3

 DRAWDOWN WILL BE SAVED ON UNIT   52 AT END OF TIME STEP   72, STRESS PERIOD    3
1
  VOLUMETRIC BUDGET FOR ENTIRE MODEL AT END OF TIME STEP   72, STRESS PERIOD   3
  ------------------------------------------------------------------------------

     CUMULATIVE VOLUMES      L**3       RATES FOR THIS TIME STEP      L**3/T
     ------------------                 ------------------------

           IN:                                      IN:
           ---                                      ---
             STORAGE =       1.0477E-08               STORAGE =           0.0000
       CONSTANT HEAD =           0.0000         CONSTANT HEAD =           0.0000
               WELLS =           0.0000                 WELLS =           0.0000
     HEAD DEP BOUNDS =      115272.0078       HEAD DEP BOUNDS =         666.3123

            TOTAL IN =      115272.0078              TOTAL IN =         666.3123

          OUT:                                     OUT:
          ----                                     ----
             STORAGE =       5.2387E-08               STORAGE =           0.0000
       CONSTANT HEAD =           0.0000         CONSTANT HEAD =           0.0000
               WELLS =           0.0000                 WELLS =           0.0000
     HEAD DEP BOUNDS =      115262.6953       HEAD DEP BOUNDS =         666.2595

           TOTAL OUT =      115262.6953             TOTAL OUT =         666.2595

            IN - OUT =           9.3125              IN - OUT =       5.2795E-02

 PERCENT DISCREPANCY =           0.01     PERCENT DISCREPANCY =           0.01






         TIME SUMMARY AT END OF TIME STEP   72 IN STRESS PERIOD    3
                    SECONDS     MINUTES      HOURS       DAYS        YEARS
                    -----------------------------------------------------------
   TIME STEP LENGTH  86400.      1440.0      24.000      1.0000     2.73785E-03
 STRESS PERIOD TIME 6.22080E+06 1.03680E+05  1728.0      72.000     0.19713    
         TOTAL TIME 1.49472E+07 2.49120E+05  4152.0      173.00     0.47365    
1
 
 SOLVING FOR HEAD 

 OUTPUT CONTROL FOR STRESS PERIOD    3   TIME STEP   73
    SAVE HEAD FOR ALL LAYERS
    SAVE DRAWDOWN FOR ALL LAYERS
    SAVE BUDGET
    PRINT HEAD FOR ALL LAYERS
    PRINT BUDGET
 UBDSV1 SAVING "         STORAGE" ON UNIT  53 AT TIME STEP 73, STRESS PERIOD   3
 UBDSV2 SAVING "   CONSTANT HEAD" ON UNIT  53 AT TIME STEP 73, STRESS PERIOD   3
 UBDSV1 SAVING "FLOW RIGHT FACE " ON UNIT  53 AT TIME STEP 73, STRESS PERIOD   3
 UBDSV1 SAVING "FLOW FRONT FACE " ON UNIT  53 AT TIME STEP 73, STRESS PERIOD   3
 UBDSV1 SAVING "FLOW LOWER FACE " ON UNIT  53 AT TIME STEP 73, STRESS PERIOD   3
1
              HEAD IN LAYER   1 AT END OF TIME STEP  73 IN STRESS PERIOD    3
  ---------------------------------------------------------------------------

            1           2           3           4           5           6           7           8           9          10
 ........................................................................................................................
   1    9.997       8.887       7.776       6.666       5.555       4.445       3.335       2.224       1.114      3.3313E-03
   2    9.997       8.887       7.776       6.666       5.555       4.445       3.335       2.224       1.114      3.3313E-03
   3    9.997       8.887       7.776       6.666       5.555       4.445       3.335       2.224       1.114      3.3313E-03
   4    9.997       8.887       7.776       6.666       5.555       4.445       3.335       2.224       1.114      3.3313E-03
   5    9.997       8.887       7.776       6.666       5.555       4.445       3.335       2.224       1.114      3.3313E-03
   6    9.997       8.887       7.776       6.666       5.555       4.445       3.335       2.224       1.114      3.3313E-03
   7    9.997       8.887       7.776       6.666       5.555       4.445       3.335       2.224       1.114      3.3313E-03
   8    9.997       8.887       7.776       6.666       5.555       4.445       3.335       2.224       1.114      3.3313E-03
   9    9.997       8.887       7.776       6.666       5.555       4.445       3.335       2.224       1.114      3.3313E-03
  10    9.997       8.887       7.776       6.666       5.555       4.445       3.335       2.224       1.114      3.3313E-03
1
              HEAD IN LAYER   2 AT END OF TIME STEP  73 IN STRESS PERIOD    3
  ---------------------------------------------------------------------------

            1           2           3           4           5           6           7           8           9          10
 ........................................................................................................................
   1    9.997       8.887       7.776       6.666       5.555       4.445       3.335       2.224       1.114      3.3313E-03
   2    9.997       8.887       7.776       6.666       5.555       4.445       3.335       2.224       1.114      3.3313E-03
   3    9.997       8.887       7.776       6.666       5.555       4.445       3.335       2.224       1.114      3.3313E-03
   4    9.997       8.887       7.776       6.666       5.555       4.445       3.335       2.224       1.114      3.3313E-03
   5    9.997       8.887       7.776       6.666       5.555       4.445       3.335       2.224       1.114      3.3313E-03
   6    9.997       8.887       7.776       6.666       5.555       4.445       3.335       2.224       1.114      3.3313E-03
   7    9.997       8.887       7.776       6.666       5.555       4.445       3.335       2.224       1.114      3.3313E-03
   8    9.997       8.887       7.776       6.666       5.555       4.445       3.335       2.224       1.114      3.3313E-03
   9    9.997       8.887       7.776       6.666       5.555       4.445       3.335       2.224       1.114      3.3313E-03
  10    9.997       8.887       7.776       6.666       5.555       4.445       3.335       2.224       1.114      3.3313E-03
1
              HEAD IN LAYER   3 AT END OF TIME STEP  73 IN STRESS PERIOD    3
  ---------------------------------------------------------------------------

            1           2           3           4           5           6           7           8           9          10
 ........................................................................................................................
   1    9.997       8.887       7.776       6.666       5.555       4.445       3.335       2.224       1.114      3.3313E-03
   2    9.997       8.887       7.776       6.666       5.555       4.445       3.335       2.224       1.114      3.3313E-03
   3    9.997       8.887       7.776       6.666       5.555       4.445       3.335       2.224       1.114      3.3313E-03
   4    9.997       8.887       7.776       6.666       5.555       4.445       3.335       2.224       1.114      3.3313E-03
   5    9.997       8.887       7.776       6.666       5.555       4.445       3.335       2.224       1.114      3.3313E-03
   6    9.997       8.887       7.776       6.666       5.555       4.445       3.335       2.224       1.114      3.3313E-03
   7    9.997       8.887       7.776       6.666       5.555       4.445       3.335       2.224       1.114      3.3313E-03
   8    9.997       8.887       7.776       6.666       5.555       4.445       3.335       2.224       1.114      3.3313E-03
   9    9.997       8.887       7.776       6.666       5.555       4.445       3.335       2.224       1.114      3.3313E-03
  10    9.997       8.887       7.776       6.666       5.555       4.445       3.335       2.224       1.114      3.3313E-03
1
              HEAD IN LAYER   4 AT END OF TIME STEP  73 IN STRESS PERIOD    3
  ---------------------------------------------------------------------------

            1           2           3           4           5           6           7           8           9          10
 ........................................................................................................................
   1    9.997       8.887       7.776       6.666       5.555       4.445       3.335       2.224       1.114      3.3313E-03
   2    9.997       8.887       7.776       6.666       5.555       4.445       3.335       2.224       1.114      3.3313E-03
   3    9.997       8.887       7.776       6.666       5.555       4.445       3.335       2.224       1.114      3.3313E-03
   4    9.997       8.887       7.776       6.666       5.555       4.445       3.335       2.224       1.114      3.3313E-03
   5    9.997       8.887       7.776       6.666       5.555       4.445       3.335       2.224       1.114      3.3313E-03
   6    9.997       8.887       7.776       6.666       5.555       4.445       3.335       2.224       1.114      3.3313E-03
   7    9.997       8.887       7.776       6.666       5.555       4.445       3.335       2.224       1.114      3.3313E-03
   8    9.997       8.887       7.776       6.666       5.555       4.445       3.335       2.224       1.114      3.3313E-03
   9    9.997       8.887       7.776       6.666       5.555       4.445       3.335       2.224       1.114      3.3313E-03
  10    9.997       8.887       7.776       6.666       5.555       4.445       3.335       2.224       1.114      3.3313E-03

 HEAD WILL BE SAVED ON UNIT   51 AT END OF TIME STEP   73, STRESS PERIOD    3

 DRAWDOWN WILL BE SAVED ON UNIT   52 AT END OF TIME STEP   73, STRESS PERIOD    3
1
  VOLUMETRIC BUDGET FOR ENTIRE MODEL AT END OF TIME STEP   73, STRESS PERIOD   3
  ------------------------------------------------------------------------------

     CUMULATIVE VOLUMES      L**3       RATES FOR THIS TIME STEP      L**3/T
     ------------------                 ------------------------

           IN:                                      IN:
           ---                                      ---
             STORAGE =       1.0477E-08               STORAGE =           0.0000
       CONSTANT HEAD =           0.0000         CONSTANT HEAD =           0.0000
               WELLS =           0.0000                 WELLS =           0.0000
     HEAD DEP BOUNDS =      115938.3203       HEAD DEP BOUNDS =         666.3123

            TOTAL IN =      115938.3203              TOTAL IN =         666.3123

          OUT:                                     OUT:
          ----                                     ----
             STORAGE =       5.2387E-08               STORAGE =           0.0000
       CONSTANT HEAD =           0.0000         CONSTANT HEAD =           0.0000
               WELLS =           0.0000                 WELLS =           0.0000
     HEAD DEP BOUNDS =      115928.9531       HEAD DEP BOUNDS =         666.2595

           TOTAL OUT =      115928.9531             TOTAL OUT =         666.2595

            IN - OUT =           9.3672              IN - OUT =       5.2795E-02

 PERCENT DISCREPANCY =           0.01     PERCENT DISCREPANCY =           0.01






         TIME SUMMARY AT END OF TIME STEP   73 IN STRESS PERIOD    3
                    SECONDS     MINUTES      HOURS       DAYS        YEARS
                    -----------------------------------------------------------
   TIME STEP LENGTH  86400.      1440.0      24.000      1.0000     2.73785E-03
 STRESS PERIOD TIME 6.30720E+06 1.05120E+05  1752.0      73.000     0.19986    
         TOTAL TIME 1.50336E+07 2.50560E+05  4176.0      174.00     0.47639    
1
 
 SOLVING FOR HEAD 

 OUTPUT CONTROL FOR STRESS PERIOD    3   TIME STEP   74
    SAVE HEAD FOR ALL LAYERS
    SAVE DRAWDOWN FOR ALL LAYERS
    SAVE BUDGET
    PRINT HEAD FOR ALL LAYERS
    PRINT BUDGET
 UBDSV1 SAVING "         STORAGE" ON UNIT  53 AT TIME STEP 74, STRESS PERIOD   3
 UBDSV2 SAVING "   CONSTANT HEAD" ON UNIT  53 AT TIME STEP 74, STRESS PERIOD   3
 UBDSV1 SAVING "FLOW RIGHT FACE " ON UNIT  53 AT TIME STEP 74, STRESS PERIOD   3
 UBDSV1 SAVING "FLOW FRONT FACE " ON UNIT  53 AT TIME STEP 74, STRESS PERIOD   3
 UBDSV1 SAVING "FLOW LOWER FACE " ON UNIT  53 AT TIME STEP 74, STRESS PERIOD   3
1
              HEAD IN LAYER   1 AT END OF TIME STEP  74 IN STRESS PERIOD    3
  ---------------------------------------------------------------------------

            1           2           3           4           5           6           7           8           9          10
 ........................................................................................................................
   1    9.997       8.887       7.776       6.666       5.555       4.445       3.335       2.224       1.114      3.3313E-03
   2    9.997       8.887       7.776       6.666       5.555       4.445       3.335       2.224       1.114      3.3313E-03
   3    9.997       8.887       7.776       6.666       5.555       4.445       3.335       2.224       1.114      3.3313E-03
   4    9.997       8.887       7.776       6.666       5.555       4.445       3.335       2.224       1.114      3.3313E-03
   5    9.997       8.887       7.776       6.666       5.555       4.445       3.335       2.224       1.114      3.3313E-03
   6    9.997       8.887       7.776       6.666       5.555       4.445       3.335       2.224       1.114      3.3313E-03
   7    9.997       8.887       7.776       6.666       5.555       4.445       3.335       2.224       1.114      3.3313E-03
   8    9.997       8.887       7.776       6.666       5.555       4.445       3.335       2.224       1.114      3.3313E-03
   9    9.997       8.887       7.776       6.666       5.555       4.445       3.335       2.224       1.114      3.3313E-03
  10    9.997       8.887       7.776       6.666       5.555       4.445       3.335       2.224       1.114      3.3313E-03
1
              HEAD IN LAYER   2 AT END OF TIME STEP  74 IN STRESS PERIOD    3
  ---------------------------------------------------------------------------

            1           2           3           4           5           6           7           8           9          10
 ........................................................................................................................
   1    9.997       8.887       7.776       6.666       5.555       4.445       3.335       2.224       1.114      3.3313E-03
   2    9.997       8.887       7.776       6.666       5.555       4.445       3.335       2.224       1.114      3.3313E-03
   3    9.997       8.887       7.776       6.666       5.555       4.445       3.335       2.224       1.114      3.3313E-03
   4    9.997       8.887       7.776       6.666       5.555       4.445       3.335       2.224       1.114      3.3313E-03
   5    9.997       8.887       7.776       6.666       5.555       4.445       3.335       2.224       1.114      3.3313E-03
   6    9.997       8.887       7.776       6.666       5.555       4.445       3.335       2.224       1.114      3.3313E-03
   7    9.997       8.887       7.776       6.666       5.555       4.445       3.335       2.224       1.114      3.3313E-03
   8    9.997       8.887       7.776       6.666       5.555       4.445       3.335       2.224       1.114      3.3313E-03
   9    9.997       8.887       7.776       6.666       5.555       4.445       3.335       2.224       1.114      3.3313E-03
  10    9.997       8.887       7.776       6.666       5.555       4.445       3.335       2.224       1.114      3.3313E-03
1
              HEAD IN LAYER   3 AT END OF TIME STEP  74 IN STRESS PERIOD    3
  ---------------------------------------------------------------------------

            1           2           3           4           5           6           7           8           9          10
 ........................................................................................................................
   1    9.997       8.887       7.776       6.666       5.555       4.445       3.335       2.224       1.114      3.3313E-03
   2    9.997       8.887       7.776       6.666       5.555       4.445       3.335       2.224       1.114      3.3313E-03
   3    9.997       8.887       7.776       6.666       5.555       4.445       3.335       2.224       1.114      3.3313E-03
   4    9.997       8.887       7.776       6.666       5.555       4.445       3.335       2.224       1.114      3.3313E-03
   5    9.997       8.887       7.776       6.666       5.555       4.445       3.335       2.224       1.114      3.3313E-03
   6    9.997       8.887       7.776       6.666       5.555       4.445       3.335       2.224       1.114      3.3313E-03
   7    9.997       8.887       7.776       6.666       5.555       4.445       3.335       2.224       1.114      3.3313E-03
   8    9.997       8.887       7.776       6.666       5.555       4.445       3.335       2.224       1.114      3.3313E-03
   9    9.997       8.887       7.776       6.666       5.555       4.445       3.335       2.224       1.114      3.3313E-03
  10    9.997       8.887       7.776       6.666       5.555       4.445       3.335       2.224       1.114      3.3313E-03
1
              HEAD IN LAYER   4 AT END OF TIME STEP  74 IN STRESS PERIOD    3
  ---------------------------------------------------------------------------

            1           2           3           4           5           6           7           8           9          10
 ........................................................................................................................
   1    9.997       8.887       7.776       6.666       5.555       4.445       3.335       2.224       1.114      3.3313E-03
   2    9.997       8.887       7.776       6.666       5.555       4.445       3.335       2.224       1.114      3.3313E-03
   3    9.997       8.887       7.776       6.666       5.555       4.445       3.335       2.224       1.114      3.3313E-03
   4    9.997       8.887       7.776       6.666       5.555       4.445       3.335       2.224       1.114      3.3313E-03
   5    9.997       8.887       7.776       6.666       5.555       4.445       3.335       2.224       1.114      3.3313E-03
   6    9.997       8.887       7.776       6.666       5.555       4.445       3.335       2.224       1.114      3.3313E-03
   7    9.997       8.887       7.776       6.666       5.555       4.445       3.335       2.224       1.114      3.3313E-03
   8    9.997       8.887       7.776       6.666       5.555       4.445       3.335       2.224       1.114      3.3313E-03
   9    9.997       8.887       7.776       6.666       5.555       4.445       3.335       2.224       1.114      3.3313E-03
  10    9.997       8.887       7.776       6.666       5.555       4.445       3.335       2.224       1.114      3.3313E-03

 HEAD WILL BE SAVED ON UNIT   51 AT END OF TIME STEP   74, STRESS PERIOD    3

 DRAWDOWN WILL BE SAVED ON UNIT   52 AT END OF TIME STEP   74, STRESS PERIOD    3
1
  VOLUMETRIC BUDGET FOR ENTIRE MODEL AT END OF TIME STEP   74, STRESS PERIOD   3
  ------------------------------------------------------------------------------

     CUMULATIVE VOLUMES      L**3       RATES FOR THIS TIME STEP      L**3/T
     ------------------                 ------------------------

           IN:                                      IN:
           ---                                      ---
             STORAGE =       1.0477E-08               STORAGE =           0.0000
       CONSTANT HEAD =           0.0000         CONSTANT HEAD =           0.0000
               WELLS =           0.0000                 WELLS =           0.0000
     HEAD DEP BOUNDS =      116604.6328       HEAD DEP BOUNDS =         666.3123

            TOTAL IN =      116604.6328              TOTAL IN =         666.3123

          OUT:                                     OUT:
          ----                                     ----
             STORAGE =       5.2387E-08               STORAGE =           0.0000
       CONSTANT HEAD =           0.0000         CONSTANT HEAD =           0.0000
               WELLS =           0.0000                 WELLS =           0.0000
     HEAD DEP BOUNDS =      116595.2109       HEAD DEP BOUNDS =         666.2595

           TOTAL OUT =      116595.2109             TOTAL OUT =         666.2595

            IN - OUT =           9.4219              IN - OUT =       5.2795E-02

 PERCENT DISCREPANCY =           0.01     PERCENT DISCREPANCY =           0.01






         TIME SUMMARY AT END OF TIME STEP   74 IN STRESS PERIOD    3
                    SECONDS     MINUTES      HOURS       DAYS        YEARS
                    -----------------------------------------------------------
   TIME STEP LENGTH  86400.      1440.0      24.000      1.0000     2.73785E-03
 STRESS PERIOD TIME 6.39360E+06 1.06560E+05  1776.0      74.000     0.20260    
         TOTAL TIME 1.51200E+07 2.52000E+05  4200.0      175.00     0.47912    
1
 
 SOLVING FOR HEAD 

 OUTPUT CONTROL FOR STRESS PERIOD    3   TIME STEP   75
    SAVE HEAD FOR ALL LAYERS
    SAVE DRAWDOWN FOR ALL LAYERS
    SAVE BUDGET
    PRINT HEAD FOR ALL LAYERS
    PRINT BUDGET
 UBDSV1 SAVING "         STORAGE" ON UNIT  53 AT TIME STEP 75, STRESS PERIOD   3
 UBDSV2 SAVING "   CONSTANT HEAD" ON UNIT  53 AT TIME STEP 75, STRESS PERIOD   3
 UBDSV1 SAVING "FLOW RIGHT FACE " ON UNIT  53 AT TIME STEP 75, STRESS PERIOD   3
 UBDSV1 SAVING "FLOW FRONT FACE " ON UNIT  53 AT TIME STEP 75, STRESS PERIOD   3
 UBDSV1 SAVING "FLOW LOWER FACE " ON UNIT  53 AT TIME STEP 75, STRESS PERIOD   3
1
              HEAD IN LAYER   1 AT END OF TIME STEP  75 IN STRESS PERIOD    3
  ---------------------------------------------------------------------------

            1           2           3           4           5           6           7           8           9          10
 ........................................................................................................................
   1    9.997       8.887       7.776       6.666       5.555       4.445       3.335       2.224       1.114      3.3313E-03
   2    9.997       8.887       7.776       6.666       5.555       4.445       3.335       2.224       1.114      3.3313E-03
   3    9.997       8.887       7.776       6.666       5.555       4.445       3.335       2.224       1.114      3.3313E-03
   4    9.997       8.887       7.776       6.666       5.555       4.445       3.335       2.224       1.114      3.3313E-03
   5    9.997       8.887       7.776       6.666       5.555       4.445       3.335       2.224       1.114      3.3313E-03
   6    9.997       8.887       7.776       6.666       5.555       4.445       3.335       2.224       1.114      3.3313E-03
   7    9.997       8.887       7.776       6.666       5.555       4.445       3.335       2.224       1.114      3.3313E-03
   8    9.997       8.887       7.776       6.666       5.555       4.445       3.335       2.224       1.114      3.3313E-03
   9    9.997       8.887       7.776       6.666       5.555       4.445       3.335       2.224       1.114      3.3313E-03
  10    9.997       8.887       7.776       6.666       5.555       4.445       3.335       2.224       1.114      3.3313E-03
1
              HEAD IN LAYER   2 AT END OF TIME STEP  75 IN STRESS PERIOD    3
  ---------------------------------------------------------------------------

            1           2           3           4           5           6           7           8           9          10
 ........................................................................................................................
   1    9.997       8.887       7.776       6.666       5.555       4.445       3.335       2.224       1.114      3.3313E-03
   2    9.997       8.887       7.776       6.666       5.555       4.445       3.335       2.224       1.114      3.3313E-03
   3    9.997       8.887       7.776       6.666       5.555       4.445       3.335       2.224       1.114      3.3313E-03
   4    9.997       8.887       7.776       6.666       5.555       4.445       3.335       2.224       1.114      3.3313E-03
   5    9.997       8.887       7.776       6.666       5.555       4.445       3.335       2.224       1.114      3.3313E-03
   6    9.997       8.887       7.776       6.666       5.555       4.445       3.335       2.224       1.114      3.3313E-03
   7    9.997       8.887       7.776       6.666       5.555       4.445       3.335       2.224       1.114      3.3313E-03
   8    9.997       8.887       7.776       6.666       5.555       4.445       3.335       2.224       1.114      3.3313E-03
   9    9.997       8.887       7.776       6.666       5.555       4.445       3.335       2.224       1.114      3.3313E-03
  10    9.997       8.887       7.776       6.666       5.555       4.445       3.335       2.224       1.114      3.3313E-03
1
              HEAD IN LAYER   3 AT END OF TIME STEP  75 IN STRESS PERIOD    3
  ---------------------------------------------------------------------------

            1           2           3           4           5           6           7           8           9          10
 ........................................................................................................................
   1    9.997       8.887       7.776       6.666       5.555       4.445       3.335       2.224       1.114      3.3313E-03
   2    9.997       8.887       7.776       6.666       5.555       4.445       3.335       2.224       1.114      3.3313E-03
   3    9.997       8.887       7.776       6.666       5.555       4.445       3.335       2.224       1.114      3.3313E-03
   4    9.997       8.887       7.776       6.666       5.555       4.445       3.335       2.224       1.114      3.3313E-03
   5    9.997       8.887       7.776       6.666       5.555       4.445       3.335       2.224       1.114      3.3313E-03
   6    9.997       8.887       7.776       6.666       5.555       4.445       3.335       2.224       1.114      3.3313E-03
   7    9.997       8.887       7.776       6.666       5.555       4.445       3.335       2.224       1.114      3.3313E-03
   8    9.997       8.887       7.776       6.666       5.555       4.445       3.335       2.224       1.114      3.3313E-03
   9    9.997       8.887       7.776       6.666       5.555       4.445       3.335       2.224       1.114      3.3313E-03
  10    9.997       8.887       7.776       6.666       5.555       4.445       3.335       2.224       1.114      3.3313E-03
1
              HEAD IN LAYER   4 AT END OF TIME STEP  75 IN STRESS PERIOD    3
  ---------------------------------------------------------------------------

            1           2           3           4           5           6           7           8           9          10
 ........................................................................................................................
   1    9.997       8.887       7.776       6.666       5.555       4.445       3.335       2.224       1.114      3.3313E-03
   2    9.997       8.887       7.776       6.666       5.555       4.445       3.335       2.224       1.114      3.3313E-03
   3    9.997       8.887       7.776       6.666       5.555       4.445       3.335       2.224       1.114      3.3313E-03
   4    9.997       8.887       7.776       6.666       5.555       4.445       3.335       2.224       1.114      3.3313E-03
   5    9.997       8.887       7.776       6.666       5.555       4.445       3.335       2.224       1.114      3.3313E-03
   6    9.997       8.887       7.776       6.666       5.555       4.445       3.335       2.224       1.114      3.3313E-03
   7    9.997       8.887       7.776       6.666       5.555       4.445       3.335       2.224       1.114      3.3313E-03
   8    9.997       8.887       7.776       6.666       5.555       4.445       3.335       2.224       1.114      3.3313E-03
   9    9.997       8.887       7.776       6.666       5.555       4.445       3.335       2.224       1.114      3.3313E-03
  10    9.997       8.887       7.776       6.666       5.555       4.445       3.335       2.224       1.114      3.3313E-03

 HEAD WILL BE SAVED ON UNIT   51 AT END OF TIME STEP   75, STRESS PERIOD    3

 DRAWDOWN WILL BE SAVED ON UNIT   52 AT END OF TIME STEP   75, STRESS PERIOD    3
1
  VOLUMETRIC BUDGET FOR ENTIRE MODEL AT END OF TIME STEP   75, STRESS PERIOD   3
  ------------------------------------------------------------------------------

     CUMULATIVE VOLUMES      L**3       RATES FOR THIS TIME STEP      L**3/T
     ------------------                 ------------------------

           IN:                                      IN:
           ---                                      ---
             STORAGE =       1.0477E-08               STORAGE =           0.0000
       CONSTANT HEAD =           0.0000         CONSTANT HEAD =           0.0000
               WELLS =           0.0000                 WELLS =           0.0000
     HEAD DEP BOUNDS =      117270.9453       HEAD DEP BOUNDS =         666.3123

            TOTAL IN =      117270.9453              TOTAL IN =         666.3123

          OUT:                                     OUT:
          ----                                     ----
             STORAGE =       5.2387E-08               STORAGE =           0.0000
       CONSTANT HEAD =           0.0000         CONSTANT HEAD =           0.0000
               WELLS =           0.0000                 WELLS =           0.0000
     HEAD DEP BOUNDS =      117261.4688       HEAD DEP BOUNDS =         666.2595

           TOTAL OUT =      117261.4688             TOTAL OUT =         666.2595

            IN - OUT =           9.4766              IN - OUT =       5.2795E-02

 PERCENT DISCREPANCY =           0.01     PERCENT DISCREPANCY =           0.01






         TIME SUMMARY AT END OF TIME STEP   75 IN STRESS PERIOD    3
                    SECONDS     MINUTES      HOURS       DAYS        YEARS
                    -----------------------------------------------------------
   TIME STEP LENGTH  86400.      1440.0      24.000      1.0000     2.73785E-03
 STRESS PERIOD TIME 6.48000E+06 1.08000E+05  1800.0      75.000     0.20534    
         TOTAL TIME 1.52064E+07 2.53440E+05  4224.0      176.00     0.48186    
1
 
 SOLVING FOR HEAD 

 OUTPUT CONTROL FOR STRESS PERIOD    3   TIME STEP   76
    SAVE HEAD FOR ALL LAYERS
    SAVE DRAWDOWN FOR ALL LAYERS
    SAVE BUDGET
    PRINT HEAD FOR ALL LAYERS
    PRINT BUDGET
 UBDSV1 SAVING "         STORAGE" ON UNIT  53 AT TIME STEP 76, STRESS PERIOD   3
 UBDSV2 SAVING "   CONSTANT HEAD" ON UNIT  53 AT TIME STEP 76, STRESS PERIOD   3
 UBDSV1 SAVING "FLOW RIGHT FACE " ON UNIT  53 AT TIME STEP 76, STRESS PERIOD   3
 UBDSV1 SAVING "FLOW FRONT FACE " ON UNIT  53 AT TIME STEP 76, STRESS PERIOD   3
 UBDSV1 SAVING "FLOW LOWER FACE " ON UNIT  53 AT TIME STEP 76, STRESS PERIOD   3
1
              HEAD IN LAYER   1 AT END OF TIME STEP  76 IN STRESS PERIOD    3
  ---------------------------------------------------------------------------

            1           2           3           4           5           6           7           8           9          10
 ........................................................................................................................
   1    9.997       8.887       7.776       6.666       5.555       4.445       3.335       2.224       1.114      3.3313E-03
   2    9.997       8.887       7.776       6.666       5.555       4.445       3.335       2.224       1.114      3.3313E-03
   3    9.997       8.887       7.776       6.666       5.555       4.445       3.335       2.224       1.114      3.3313E-03
   4    9.997       8.887       7.776       6.666       5.555       4.445       3.335       2.224       1.114      3.3313E-03
   5    9.997       8.887       7.776       6.666       5.555       4.445       3.335       2.224       1.114      3.3313E-03
   6    9.997       8.887       7.776       6.666       5.555       4.445       3.335       2.224       1.114      3.3313E-03
   7    9.997       8.887       7.776       6.666       5.555       4.445       3.335       2.224       1.114      3.3313E-03
   8    9.997       8.887       7.776       6.666       5.555       4.445       3.335       2.224       1.114      3.3313E-03
   9    9.997       8.887       7.776       6.666       5.555       4.445       3.335       2.224       1.114      3.3313E-03
  10    9.997       8.887       7.776       6.666       5.555       4.445       3.335       2.224       1.114      3.3313E-03
1
              HEAD IN LAYER   2 AT END OF TIME STEP  76 IN STRESS PERIOD    3
  ---------------------------------------------------------------------------

            1           2           3           4           5           6           7           8           9          10
 ........................................................................................................................
   1    9.997       8.887       7.776       6.666       5.555       4.445       3.335       2.224       1.114      3.3313E-03
   2    9.997       8.887       7.776       6.666       5.555       4.445       3.335       2.224       1.114      3.3313E-03
   3    9.997       8.887       7.776       6.666       5.555       4.445       3.335       2.224       1.114      3.3313E-03
   4    9.997       8.887       7.776       6.666       5.555       4.445       3.335       2.224       1.114      3.3313E-03
   5    9.997       8.887       7.776       6.666       5.555       4.445       3.335       2.224       1.114      3.3313E-03
   6    9.997       8.887       7.776       6.666       5.555       4.445       3.335       2.224       1.114      3.3313E-03
   7    9.997       8.887       7.776       6.666       5.555       4.445       3.335       2.224       1.114      3.3313E-03
   8    9.997       8.887       7.776       6.666       5.555       4.445       3.335       2.224       1.114      3.3313E-03
   9    9.997       8.887       7.776       6.666       5.555       4.445       3.335       2.224       1.114      3.3313E-03
  10    9.997       8.887       7.776       6.666       5.555       4.445       3.335       2.224       1.114      3.3313E-03
1
              HEAD IN LAYER   3 AT END OF TIME STEP  76 IN STRESS PERIOD    3
  ---------------------------------------------------------------------------

            1           2           3           4           5           6           7           8           9          10
 ........................................................................................................................
   1    9.997       8.887       7.776       6.666       5.555       4.445       3.335       2.224       1.114      3.3313E-03
   2    9.997       8.887       7.776       6.666       5.555       4.445       3.335       2.224       1.114      3.3313E-03
   3    9.997       8.887       7.776       6.666       5.555       4.445       3.335       2.224       1.114      3.3313E-03
   4    9.997       8.887       7.776       6.666       5.555       4.445       3.335       2.224       1.114      3.3313E-03
   5    9.997       8.887       7.776       6.666       5.555       4.445       3.335       2.224       1.114      3.3313E-03
   6    9.997       8.887       7.776       6.666       5.555       4.445       3.335       2.224       1.114      3.3313E-03
   7    9.997       8.887       7.776       6.666       5.555       4.445       3.335       2.224       1.114      3.3313E-03
   8    9.997       8.887       7.776       6.666       5.555       4.445       3.335       2.224       1.114      3.3313E-03
   9    9.997       8.887       7.776       6.666       5.555       4.445       3.335       2.224       1.114      3.3313E-03
  10    9.997       8.887       7.776       6.666       5.555       4.445       3.335       2.224       1.114      3.3313E-03
1
              HEAD IN LAYER   4 AT END OF TIME STEP  76 IN STRESS PERIOD    3
  ---------------------------------------------------------------------------

            1           2           3           4           5           6           7           8           9          10
 ........................................................................................................................
   1    9.997       8.887       7.776       6.666       5.555       4.445       3.335       2.224       1.114      3.3313E-03
   2    9.997       8.887       7.776       6.666       5.555       4.445       3.335       2.224       1.114      3.3313E-03
   3    9.997       8.887       7.776       6.666       5.555       4.445       3.335       2.224       1.114      3.3313E-03
   4    9.997       8.887       7.776       6.666       5.555       4.445       3.335       2.224       1.114      3.3313E-03
   5    9.997       8.887       7.776       6.666       5.555       4.445       3.335       2.224       1.114      3.3313E-03
   6    9.997       8.887       7.776       6.666       5.555       4.445       3.335       2.224       1.114      3.3313E-03
   7    9.997       8.887       7.776       6.666       5.555       4.445       3.335       2.224       1.114      3.3313E-03
   8    9.997       8.887       7.776       6.666       5.555       4.445       3.335       2.224       1.114      3.3313E-03
   9    9.997       8.887       7.776       6.666       5.555       4.445       3.335       2.224       1.114      3.3313E-03
  10    9.997       8.887       7.776       6.666       5.555       4.445       3.335       2.224       1.114      3.3313E-03

 HEAD WILL BE SAVED ON UNIT   51 AT END OF TIME STEP   76, STRESS PERIOD    3

 DRAWDOWN WILL BE SAVED ON UNIT   52 AT END OF TIME STEP   76, STRESS PERIOD    3
1
  VOLUMETRIC BUDGET FOR ENTIRE MODEL AT END OF TIME STEP   76, STRESS PERIOD   3
  ------------------------------------------------------------------------------

     CUMULATIVE VOLUMES      L**3       RATES FOR THIS TIME STEP      L**3/T
     ------------------                 ------------------------

           IN:                                      IN:
           ---                                      ---
             STORAGE =       1.0477E-08               STORAGE =           0.0000
       CONSTANT HEAD =           0.0000         CONSTANT HEAD =           0.0000
               WELLS =           0.0000                 WELLS =           0.0000
     HEAD DEP BOUNDS =      117937.2578       HEAD DEP BOUNDS =         666.3123

            TOTAL IN =      117937.2578              TOTAL IN =         666.3123

          OUT:                                     OUT:
          ----                                     ----
             STORAGE =       5.2387E-08               STORAGE =           0.0000
       CONSTANT HEAD =           0.0000         CONSTANT HEAD =           0.0000
               WELLS =           0.0000                 WELLS =           0.0000
     HEAD DEP BOUNDS =      117927.7266       HEAD DEP BOUNDS =         666.2595

           TOTAL OUT =      117927.7266             TOTAL OUT =         666.2595

            IN - OUT =           9.5312              IN - OUT =       5.2795E-02

 PERCENT DISCREPANCY =           0.01     PERCENT DISCREPANCY =           0.01






         TIME SUMMARY AT END OF TIME STEP   76 IN STRESS PERIOD    3
                    SECONDS     MINUTES      HOURS       DAYS        YEARS
                    -----------------------------------------------------------
   TIME STEP LENGTH  86400.      1440.0      24.000      1.0000     2.73785E-03
 STRESS PERIOD TIME 6.56640E+06 1.09440E+05  1824.0      76.000     0.20808    
         TOTAL TIME 1.52928E+07 2.54880E+05  4248.0      177.00     0.48460    
1
 
 SOLVING FOR HEAD 

 OUTPUT CONTROL FOR STRESS PERIOD    3   TIME STEP   77
    SAVE HEAD FOR ALL LAYERS
    SAVE DRAWDOWN FOR ALL LAYERS
    SAVE BUDGET
    PRINT HEAD FOR ALL LAYERS
    PRINT BUDGET
 UBDSV1 SAVING "         STORAGE" ON UNIT  53 AT TIME STEP 77, STRESS PERIOD   3
 UBDSV2 SAVING "   CONSTANT HEAD" ON UNIT  53 AT TIME STEP 77, STRESS PERIOD   3
 UBDSV1 SAVING "FLOW RIGHT FACE " ON UNIT  53 AT TIME STEP 77, STRESS PERIOD   3
 UBDSV1 SAVING "FLOW FRONT FACE " ON UNIT  53 AT TIME STEP 77, STRESS PERIOD   3
 UBDSV1 SAVING "FLOW LOWER FACE " ON UNIT  53 AT TIME STEP 77, STRESS PERIOD   3
1
              HEAD IN LAYER   1 AT END OF TIME STEP  77 IN STRESS PERIOD    3
  ---------------------------------------------------------------------------

            1           2           3           4           5           6           7           8           9          10
 ........................................................................................................................
   1    9.997       8.887       7.776       6.666       5.555       4.445       3.335       2.224       1.114      3.3313E-03
   2    9.997       8.887       7.776       6.666       5.555       4.445       3.335       2.224       1.114      3.3313E-03
   3    9.997       8.887       7.776       6.666       5.555       4.445       3.335       2.224       1.114      3.3313E-03
   4    9.997       8.887       7.776       6.666       5.555       4.445       3.335       2.224       1.114      3.3313E-03
   5    9.997       8.887       7.776       6.666       5.555       4.445       3.335       2.224       1.114      3.3313E-03
   6    9.997       8.887       7.776       6.666       5.555       4.445       3.335       2.224       1.114      3.3313E-03
   7    9.997       8.887       7.776       6.666       5.555       4.445       3.335       2.224       1.114      3.3313E-03
   8    9.997       8.887       7.776       6.666       5.555       4.445       3.335       2.224       1.114      3.3313E-03
   9    9.997       8.887       7.776       6.666       5.555       4.445       3.335       2.224       1.114      3.3313E-03
  10    9.997       8.887       7.776       6.666       5.555       4.445       3.335       2.224       1.114      3.3313E-03
1
              HEAD IN LAYER   2 AT END OF TIME STEP  77 IN STRESS PERIOD    3
  ---------------------------------------------------------------------------

            1           2           3           4           5           6           7           8           9          10
 ........................................................................................................................
   1    9.997       8.887       7.776       6.666       5.555       4.445       3.335       2.224       1.114      3.3313E-03
   2    9.997       8.887       7.776       6.666       5.555       4.445       3.335       2.224       1.114      3.3313E-03
   3    9.997       8.887       7.776       6.666       5.555       4.445       3.335       2.224       1.114      3.3313E-03
   4    9.997       8.887       7.776       6.666       5.555       4.445       3.335       2.224       1.114      3.3313E-03
   5    9.997       8.887       7.776       6.666       5.555       4.445       3.335       2.224       1.114      3.3313E-03
   6    9.997       8.887       7.776       6.666       5.555       4.445       3.335       2.224       1.114      3.3313E-03
   7    9.997       8.887       7.776       6.666       5.555       4.445       3.335       2.224       1.114      3.3313E-03
   8    9.997       8.887       7.776       6.666       5.555       4.445       3.335       2.224       1.114      3.3313E-03
   9    9.997       8.887       7.776       6.666       5.555       4.445       3.335       2.224       1.114      3.3313E-03
  10    9.997       8.887       7.776       6.666       5.555       4.445       3.335       2.224       1.114      3.3313E-03
1
              HEAD IN LAYER   3 AT END OF TIME STEP  77 IN STRESS PERIOD    3
  ---------------------------------------------------------------------------

            1           2           3           4           5           6           7           8           9          10
 ........................................................................................................................
   1    9.997       8.887       7.776       6.666       5.555       4.445       3.335       2.224       1.114      3.3313E-03
   2    9.997       8.887       7.776       6.666       5.555       4.445       3.335       2.224       1.114      3.3313E-03
   3    9.997       8.887       7.776       6.666       5.555       4.445       3.335       2.224       1.114      3.3313E-03
   4    9.997       8.887       7.776       6.666       5.555       4.445       3.335       2.224       1.114      3.3313E-03
   5    9.997       8.887       7.776       6.666       5.555       4.445       3.335       2.224       1.114      3.3313E-03
   6    9.997       8.887       7.776       6.666       5.555       4.445       3.335       2.224       1.114      3.3313E-03
   7    9.997       8.887       7.776       6.666       5.555       4.445       3.335       2.224       1.114      3.3313E-03
   8    9.997       8.887       7.776       6.666       5.555       4.445       3.335       2.224       1.114      3.3313E-03
   9    9.997       8.887       7.776       6.666       5.555       4.445       3.335       2.224       1.114      3.3313E-03
  10    9.997       8.887       7.776       6.666       5.555       4.445       3.335       2.224       1.114      3.3313E-03
1
              HEAD IN LAYER   4 AT END OF TIME STEP  77 IN STRESS PERIOD    3
  ---------------------------------------------------------------------------

            1           2           3           4           5           6           7           8           9          10
 ........................................................................................................................
   1    9.997       8.887       7.776       6.666       5.555       4.445       3.335       2.224       1.114      3.3313E-03
   2    9.997       8.887       7.776       6.666       5.555       4.445       3.335       2.224       1.114      3.3313E-03
   3    9.997       8.887       7.776       6.666       5.555       4.445       3.335       2.224       1.114      3.3313E-03
   4    9.997       8.887       7.776       6.666       5.555       4.445       3.335       2.224       1.114      3.3313E-03
   5    9.997       8.887       7.776       6.666       5.555       4.445       3.335       2.224       1.114      3.3313E-03
   6    9.997       8.887       7.776       6.666       5.555       4.445       3.335       2.224       1.114      3.3313E-03
   7    9.997       8.887       7.776       6.666       5.555       4.445       3.335       2.224       1.114      3.3313E-03
   8    9.997       8.887       7.776       6.666       5.555       4.445       3.335       2.224       1.114      3.3313E-03
   9    9.997       8.887       7.776       6.666       5.555       4.445       3.335       2.224       1.114      3.3313E-03
  10    9.997       8.887       7.776       6.666       5.555       4.445       3.335       2.224       1.114      3.3313E-03

 HEAD WILL BE SAVED ON UNIT   51 AT END OF TIME STEP   77, STRESS PERIOD    3

 DRAWDOWN WILL BE SAVED ON UNIT   52 AT END OF TIME STEP   77, STRESS PERIOD    3
1
  VOLUMETRIC BUDGET FOR ENTIRE MODEL AT END OF TIME STEP   77, STRESS PERIOD   3
  ------------------------------------------------------------------------------

     CUMULATIVE VOLUMES      L**3       RATES FOR THIS TIME STEP      L**3/T
     ------------------                 ------------------------

           IN:                                      IN:
           ---                                      ---
             STORAGE =       1.0477E-08               STORAGE =           0.0000
       CONSTANT HEAD =           0.0000         CONSTANT HEAD =           0.0000
               WELLS =           0.0000                 WELLS =           0.0000
     HEAD DEP BOUNDS =      118603.5703       HEAD DEP BOUNDS =         666.3123

            TOTAL IN =      118603.5703              TOTAL IN =         666.3123

          OUT:                                     OUT:
          ----                                     ----
             STORAGE =       5.2387E-08               STORAGE =           0.0000
       CONSTANT HEAD =           0.0000         CONSTANT HEAD =           0.0000
               WELLS =           0.0000                 WELLS =           0.0000
     HEAD DEP BOUNDS =      118593.9844       HEAD DEP BOUNDS =         666.2595

           TOTAL OUT =      118593.9844             TOTAL OUT =         666.2595

            IN - OUT =           9.5859              IN - OUT =       5.2795E-02

 PERCENT DISCREPANCY =           0.01     PERCENT DISCREPANCY =           0.01






         TIME SUMMARY AT END OF TIME STEP   77 IN STRESS PERIOD    3
                    SECONDS     MINUTES      HOURS       DAYS        YEARS
                    -----------------------------------------------------------
   TIME STEP LENGTH  86400.      1440.0      24.000      1.0000     2.73785E-03
 STRESS PERIOD TIME 6.65280E+06 1.10880E+05  1848.0      77.000     0.21081    
         TOTAL TIME 1.53792E+07 2.56320E+05  4272.0      178.00     0.48734    
1
 
 SOLVING FOR HEAD 

 OUTPUT CONTROL FOR STRESS PERIOD    3   TIME STEP   78
    SAVE HEAD FOR ALL LAYERS
    SAVE DRAWDOWN FOR ALL LAYERS
    SAVE BUDGET
    PRINT HEAD FOR ALL LAYERS
    PRINT BUDGET
 UBDSV1 SAVING "         STORAGE" ON UNIT  53 AT TIME STEP 78, STRESS PERIOD   3
 UBDSV2 SAVING "   CONSTANT HEAD" ON UNIT  53 AT TIME STEP 78, STRESS PERIOD   3
 UBDSV1 SAVING "FLOW RIGHT FACE " ON UNIT  53 AT TIME STEP 78, STRESS PERIOD   3
 UBDSV1 SAVING "FLOW FRONT FACE " ON UNIT  53 AT TIME STEP 78, STRESS PERIOD   3
 UBDSV1 SAVING "FLOW LOWER FACE " ON UNIT  53 AT TIME STEP 78, STRESS PERIOD   3
1
              HEAD IN LAYER   1 AT END OF TIME STEP  78 IN STRESS PERIOD    3
  ---------------------------------------------------------------------------

            1           2           3           4           5           6           7           8           9          10
 ........................................................................................................................
   1    9.997       8.887       7.776       6.666       5.555       4.445       3.335       2.224       1.114      3.3313E-03
   2    9.997       8.887       7.776       6.666       5.555       4.445       3.335       2.224       1.114      3.3313E-03
   3    9.997       8.887       7.776       6.666       5.555       4.445       3.335       2.224       1.114      3.3313E-03
   4    9.997       8.887       7.776       6.666       5.555       4.445       3.335       2.224       1.114      3.3313E-03
   5    9.997       8.887       7.776       6.666       5.555       4.445       3.335       2.224       1.114      3.3313E-03
   6    9.997       8.887       7.776       6.666       5.555       4.445       3.335       2.224       1.114      3.3313E-03
   7    9.997       8.887       7.776       6.666       5.555       4.445       3.335       2.224       1.114      3.3313E-03
   8    9.997       8.887       7.776       6.666       5.555       4.445       3.335       2.224       1.114      3.3313E-03
   9    9.997       8.887       7.776       6.666       5.555       4.445       3.335       2.224       1.114      3.3313E-03
  10    9.997       8.887       7.776       6.666       5.555       4.445       3.335       2.224       1.114      3.3313E-03
1
              HEAD IN LAYER   2 AT END OF TIME STEP  78 IN STRESS PERIOD    3
  ---------------------------------------------------------------------------

            1           2           3           4           5           6           7           8           9          10
 ........................................................................................................................
   1    9.997       8.887       7.776       6.666       5.555       4.445       3.335       2.224       1.114      3.3313E-03
   2    9.997       8.887       7.776       6.666       5.555       4.445       3.335       2.224       1.114      3.3313E-03
   3    9.997       8.887       7.776       6.666       5.555       4.445       3.335       2.224       1.114      3.3313E-03
   4    9.997       8.887       7.776       6.666       5.555       4.445       3.335       2.224       1.114      3.3313E-03
   5    9.997       8.887       7.776       6.666       5.555       4.445       3.335       2.224       1.114      3.3313E-03
   6    9.997       8.887       7.776       6.666       5.555       4.445       3.335       2.224       1.114      3.3313E-03
   7    9.997       8.887       7.776       6.666       5.555       4.445       3.335       2.224       1.114      3.3313E-03
   8    9.997       8.887       7.776       6.666       5.555       4.445       3.335       2.224       1.114      3.3313E-03
   9    9.997       8.887       7.776       6.666       5.555       4.445       3.335       2.224       1.114      3.3313E-03
  10    9.997       8.887       7.776       6.666       5.555       4.445       3.335       2.224       1.114      3.3313E-03
1
              HEAD IN LAYER   3 AT END OF TIME STEP  78 IN STRESS PERIOD    3
  ---------------------------------------------------------------------------

            1           2           3           4           5           6           7           8           9          10
 ........................................................................................................................
   1    9.997       8.887       7.776       6.666       5.555       4.445       3.335       2.224       1.114      3.3313E-03
   2    9.997       8.887       7.776       6.666       5.555       4.445       3.335       2.224       1.114      3.3313E-03
   3    9.997       8.887       7.776       6.666       5.555       4.445       3.335       2.224       1.114      3.3313E-03
   4    9.997       8.887       7.776       6.666       5.555       4.445       3.335       2.224       1.114      3.3313E-03
   5    9.997       8.887       7.776       6.666       5.555       4.445       3.335       2.224       1.114      3.3313E-03
   6    9.997       8.887       7.776       6.666       5.555       4.445       3.335       2.224       1.114      3.3313E-03
   7    9.997       8.887       7.776       6.666       5.555       4.445       3.335       2.224       1.114      3.3313E-03
   8    9.997       8.887       7.776       6.666       5.555       4.445       3.335       2.224       1.114      3.3313E-03
   9    9.997       8.887       7.776       6.666       5.555       4.445       3.335       2.224       1.114      3.3313E-03
  10    9.997       8.887       7.776       6.666       5.555       4.445       3.335       2.224       1.114      3.3313E-03
1
              HEAD IN LAYER   4 AT END OF TIME STEP  78 IN STRESS PERIOD    3
  ---------------------------------------------------------------------------

            1           2           3           4           5           6           7           8           9          10
 ........................................................................................................................
   1    9.997       8.887       7.776       6.666       5.555       4.445       3.335       2.224       1.114      3.3313E-03
   2    9.997       8.887       7.776       6.666       5.555       4.445       3.335       2.224       1.114      3.3313E-03
   3    9.997       8.887       7.776       6.666       5.555       4.445       3.335       2.224       1.114      3.3313E-03
   4    9.997       8.887       7.776       6.666       5.555       4.445       3.335       2.224       1.114      3.3313E-03
   5    9.997       8.887       7.776       6.666       5.555       4.445       3.335       2.224       1.114      3.3313E-03
   6    9.997       8.887       7.776       6.666       5.555       4.445       3.335       2.224       1.114      3.3313E-03
   7    9.997       8.887       7.776       6.666       5.555       4.445       3.335       2.224       1.114      3.3313E-03
   8    9.997       8.887       7.776       6.666       5.555       4.445       3.335       2.224       1.114      3.3313E-03
   9    9.997       8.887       7.776       6.666       5.555       4.445       3.335       2.224       1.114      3.3313E-03
  10    9.997       8.887       7.776       6.666       5.555       4.445       3.335       2.224       1.114      3.3313E-03

 HEAD WILL BE SAVED ON UNIT   51 AT END OF TIME STEP   78, STRESS PERIOD    3

 DRAWDOWN WILL BE SAVED ON UNIT   52 AT END OF TIME STEP   78, STRESS PERIOD    3
1
  VOLUMETRIC BUDGET FOR ENTIRE MODEL AT END OF TIME STEP   78, STRESS PERIOD   3
  ------------------------------------------------------------------------------

     CUMULATIVE VOLUMES      L**3       RATES FOR THIS TIME STEP      L**3/T
     ------------------                 ------------------------

           IN:                                      IN:
           ---                                      ---
             STORAGE =       1.0477E-08               STORAGE =           0.0000
       CONSTANT HEAD =           0.0000         CONSTANT HEAD =           0.0000
               WELLS =           0.0000                 WELLS =           0.0000
     HEAD DEP BOUNDS =      119269.8828       HEAD DEP BOUNDS =         666.3123

            TOTAL IN =      119269.8828              TOTAL IN =         666.3123

          OUT:                                     OUT:
          ----                                     ----
             STORAGE =       5.2387E-08               STORAGE =           0.0000
       CONSTANT HEAD =           0.0000         CONSTANT HEAD =           0.0000
               WELLS =           0.0000                 WELLS =           0.0000
     HEAD DEP BOUNDS =      119260.2422       HEAD DEP BOUNDS =         666.2595

           TOTAL OUT =      119260.2422             TOTAL OUT =         666.2595

            IN - OUT =           9.6406              IN - OUT =       5.2795E-02

 PERCENT DISCREPANCY =           0.01     PERCENT DISCREPANCY =           0.01






         TIME SUMMARY AT END OF TIME STEP   78 IN STRESS PERIOD    3
                    SECONDS     MINUTES      HOURS       DAYS        YEARS
                    -----------------------------------------------------------
   TIME STEP LENGTH  86400.      1440.0      24.000      1.0000     2.73785E-03
 STRESS PERIOD TIME 6.73920E+06 1.12320E+05  1872.0      78.000     0.21355    
         TOTAL TIME 1.54656E+07 2.57760E+05  4296.0      179.00     0.49008    
1
 
 SOLVING FOR HEAD 

 OUTPUT CONTROL FOR STRESS PERIOD    3   TIME STEP   79
    SAVE HEAD FOR ALL LAYERS
    SAVE DRAWDOWN FOR ALL LAYERS
    SAVE BUDGET
    PRINT HEAD FOR ALL LAYERS
    PRINT BUDGET
 UBDSV1 SAVING "         STORAGE" ON UNIT  53 AT TIME STEP 79, STRESS PERIOD   3
 UBDSV2 SAVING "   CONSTANT HEAD" ON UNIT  53 AT TIME STEP 79, STRESS PERIOD   3
 UBDSV1 SAVING "FLOW RIGHT FACE " ON UNIT  53 AT TIME STEP 79, STRESS PERIOD   3
 UBDSV1 SAVING "FLOW FRONT FACE " ON UNIT  53 AT TIME STEP 79, STRESS PERIOD   3
 UBDSV1 SAVING "FLOW LOWER FACE " ON UNIT  53 AT TIME STEP 79, STRESS PERIOD   3
1
              HEAD IN LAYER   1 AT END OF TIME STEP  79 IN STRESS PERIOD    3
  ---------------------------------------------------------------------------

            1           2           3           4           5           6           7           8           9          10
 ........................................................................................................................
   1    9.997       8.887       7.776       6.666       5.555       4.445       3.335       2.224       1.114      3.3313E-03
   2    9.997       8.887       7.776       6.666       5.555       4.445       3.335       2.224       1.114      3.3313E-03
   3    9.997       8.887       7.776       6.666       5.555       4.445       3.335       2.224       1.114      3.3313E-03
   4    9.997       8.887       7.776       6.666       5.555       4.445       3.335       2.224       1.114      3.3313E-03
   5    9.997       8.887       7.776       6.666       5.555       4.445       3.335       2.224       1.114      3.3313E-03
   6    9.997       8.887       7.776       6.666       5.555       4.445       3.335       2.224       1.114      3.3313E-03
   7    9.997       8.887       7.776       6.666       5.555       4.445       3.335       2.224       1.114      3.3313E-03
   8    9.997       8.887       7.776       6.666       5.555       4.445       3.335       2.224       1.114      3.3313E-03
   9    9.997       8.887       7.776       6.666       5.555       4.445       3.335       2.224       1.114      3.3313E-03
  10    9.997       8.887       7.776       6.666       5.555       4.445       3.335       2.224       1.114      3.3313E-03
1
              HEAD IN LAYER   2 AT END OF TIME STEP  79 IN STRESS PERIOD    3
  ---------------------------------------------------------------------------

            1           2           3           4           5           6           7           8           9          10
 ........................................................................................................................
   1    9.997       8.887       7.776       6.666       5.555       4.445       3.335       2.224       1.114      3.3313E-03
   2    9.997       8.887       7.776       6.666       5.555       4.445       3.335       2.224       1.114      3.3313E-03
   3    9.997       8.887       7.776       6.666       5.555       4.445       3.335       2.224       1.114      3.3313E-03
   4    9.997       8.887       7.776       6.666       5.555       4.445       3.335       2.224       1.114      3.3313E-03
   5    9.997       8.887       7.776       6.666       5.555       4.445       3.335       2.224       1.114      3.3313E-03
   6    9.997       8.887       7.776       6.666       5.555       4.445       3.335       2.224       1.114      3.3313E-03
   7    9.997       8.887       7.776       6.666       5.555       4.445       3.335       2.224       1.114      3.3313E-03
   8    9.997       8.887       7.776       6.666       5.555       4.445       3.335       2.224       1.114      3.3313E-03
   9    9.997       8.887       7.776       6.666       5.555       4.445       3.335       2.224       1.114      3.3313E-03
  10    9.997       8.887       7.776       6.666       5.555       4.445       3.335       2.224       1.114      3.3313E-03
1
              HEAD IN LAYER   3 AT END OF TIME STEP  79 IN STRESS PERIOD    3
  ---------------------------------------------------------------------------

            1           2           3           4           5           6           7           8           9          10
 ........................................................................................................................
   1    9.997       8.887       7.776       6.666       5.555       4.445       3.335       2.224       1.114      3.3313E-03
   2    9.997       8.887       7.776       6.666       5.555       4.445       3.335       2.224       1.114      3.3313E-03
   3    9.997       8.887       7.776       6.666       5.555       4.445       3.335       2.224       1.114      3.3313E-03
   4    9.997       8.887       7.776       6.666       5.555       4.445       3.335       2.224       1.114      3.3313E-03
   5    9.997       8.887       7.776       6.666       5.555       4.445       3.335       2.224       1.114      3.3313E-03
   6    9.997       8.887       7.776       6.666       5.555       4.445       3.335       2.224       1.114      3.3313E-03
   7    9.997       8.887       7.776       6.666       5.555       4.445       3.335       2.224       1.114      3.3313E-03
   8    9.997       8.887       7.776       6.666       5.555       4.445       3.335       2.224       1.114      3.3313E-03
   9    9.997       8.887       7.776       6.666       5.555       4.445       3.335       2.224       1.114      3.3313E-03
  10    9.997       8.887       7.776       6.666       5.555       4.445       3.335       2.224       1.114      3.3313E-03
1
              HEAD IN LAYER   4 AT END OF TIME STEP  79 IN STRESS PERIOD    3
  ---------------------------------------------------------------------------

            1           2           3           4           5           6           7           8           9          10
 ........................................................................................................................
   1    9.997       8.887       7.776       6.666       5.555       4.445       3.335       2.224       1.114      3.3313E-03
   2    9.997       8.887       7.776       6.666       5.555       4.445       3.335       2.224       1.114      3.3313E-03
   3    9.997       8.887       7.776       6.666       5.555       4.445       3.335       2.224       1.114      3.3313E-03
   4    9.997       8.887       7.776       6.666       5.555       4.445       3.335       2.224       1.114      3.3313E-03
   5    9.997       8.887       7.776       6.666       5.555       4.445       3.335       2.224       1.114      3.3313E-03
   6    9.997       8.887       7.776       6.666       5.555       4.445       3.335       2.224       1.114      3.3313E-03
   7    9.997       8.887       7.776       6.666       5.555       4.445       3.335       2.224       1.114      3.3313E-03
   8    9.997       8.887       7.776       6.666       5.555       4.445       3.335       2.224       1.114      3.3313E-03
   9    9.997       8.887       7.776       6.666       5.555       4.445       3.335       2.224       1.114      3.3313E-03
  10    9.997       8.887       7.776       6.666       5.555       4.445       3.335       2.224       1.114      3.3313E-03

 HEAD WILL BE SAVED ON UNIT   51 AT END OF TIME STEP   79, STRESS PERIOD    3

 DRAWDOWN WILL BE SAVED ON UNIT   52 AT END OF TIME STEP   79, STRESS PERIOD    3
1
  VOLUMETRIC BUDGET FOR ENTIRE MODEL AT END OF TIME STEP   79, STRESS PERIOD   3
  ------------------------------------------------------------------------------

     CUMULATIVE VOLUMES      L**3       RATES FOR THIS TIME STEP      L**3/T
     ------------------                 ------------------------

           IN:                                      IN:
           ---                                      ---
             STORAGE =       1.0477E-08               STORAGE =           0.0000
       CONSTANT HEAD =           0.0000         CONSTANT HEAD =           0.0000
               WELLS =           0.0000                 WELLS =           0.0000
     HEAD DEP BOUNDS =      119936.1953       HEAD DEP BOUNDS =         666.3123

            TOTAL IN =      119936.1953              TOTAL IN =         666.3123

          OUT:                                     OUT:
          ----                                     ----
             STORAGE =       5.2387E-08               STORAGE =           0.0000
       CONSTANT HEAD =           0.0000         CONSTANT HEAD =           0.0000
               WELLS =           0.0000                 WELLS =           0.0000
     HEAD DEP BOUNDS =      119926.5000       HEAD DEP BOUNDS =         666.2595

           TOTAL OUT =      119926.5000             TOTAL OUT =         666.2595

            IN - OUT =           9.6953              IN - OUT =       5.2795E-02

 PERCENT DISCREPANCY =           0.01     PERCENT DISCREPANCY =           0.01






         TIME SUMMARY AT END OF TIME STEP   79 IN STRESS PERIOD    3
                    SECONDS     MINUTES      HOURS       DAYS        YEARS
                    -----------------------------------------------------------
   TIME STEP LENGTH  86400.      1440.0      24.000      1.0000     2.73785E-03
 STRESS PERIOD TIME 6.82560E+06 1.13760E+05  1896.0      79.000     0.21629    
         TOTAL TIME 1.55520E+07 2.59200E+05  4320.0      180.00     0.49281    
1
 
 SOLVING FOR HEAD 

 OUTPUT CONTROL FOR STRESS PERIOD    3   TIME STEP   80
    SAVE HEAD FOR ALL LAYERS
    SAVE DRAWDOWN FOR ALL LAYERS
    SAVE BUDGET
    PRINT HEAD FOR ALL LAYERS
    PRINT BUDGET
 UBDSV1 SAVING "         STORAGE" ON UNIT  53 AT TIME STEP 80, STRESS PERIOD   3
 UBDSV2 SAVING "   CONSTANT HEAD" ON UNIT  53 AT TIME STEP 80, STRESS PERIOD   3
 UBDSV1 SAVING "FLOW RIGHT FACE " ON UNIT  53 AT TIME STEP 80, STRESS PERIOD   3
 UBDSV1 SAVING "FLOW FRONT FACE " ON UNIT  53 AT TIME STEP 80, STRESS PERIOD   3
 UBDSV1 SAVING "FLOW LOWER FACE " ON UNIT  53 AT TIME STEP 80, STRESS PERIOD   3
1
              HEAD IN LAYER   1 AT END OF TIME STEP  80 IN STRESS PERIOD    3
  ---------------------------------------------------------------------------

            1           2           3           4           5           6           7           8           9          10
 ........................................................................................................................
   1    9.997       8.887       7.776       6.666       5.555       4.445       3.335       2.224       1.114      3.3313E-03
   2    9.997       8.887       7.776       6.666       5.555       4.445       3.335       2.224       1.114      3.3313E-03
   3    9.997       8.887       7.776       6.666       5.555       4.445       3.335       2.224       1.114      3.3313E-03
   4    9.997       8.887       7.776       6.666       5.555       4.445       3.335       2.224       1.114      3.3313E-03
   5    9.997       8.887       7.776       6.666       5.555       4.445       3.335       2.224       1.114      3.3313E-03
   6    9.997       8.887       7.776       6.666       5.555       4.445       3.335       2.224       1.114      3.3313E-03
   7    9.997       8.887       7.776       6.666       5.555       4.445       3.335       2.224       1.114      3.3313E-03
   8    9.997       8.887       7.776       6.666       5.555       4.445       3.335       2.224       1.114      3.3313E-03
   9    9.997       8.887       7.776       6.666       5.555       4.445       3.335       2.224       1.114      3.3313E-03
  10    9.997       8.887       7.776       6.666       5.555       4.445       3.335       2.224       1.114      3.3313E-03
1
              HEAD IN LAYER   2 AT END OF TIME STEP  80 IN STRESS PERIOD    3
  ---------------------------------------------------------------------------

            1           2           3           4           5           6           7           8           9          10
 ........................................................................................................................
   1    9.997       8.887       7.776       6.666       5.555       4.445       3.335       2.224       1.114      3.3313E-03
   2    9.997       8.887       7.776       6.666       5.555       4.445       3.335       2.224       1.114      3.3313E-03
   3    9.997       8.887       7.776       6.666       5.555       4.445       3.335       2.224       1.114      3.3313E-03
   4    9.997       8.887       7.776       6.666       5.555       4.445       3.335       2.224       1.114      3.3313E-03
   5    9.997       8.887       7.776       6.666       5.555       4.445       3.335       2.224       1.114      3.3313E-03
   6    9.997       8.887       7.776       6.666       5.555       4.445       3.335       2.224       1.114      3.3313E-03
   7    9.997       8.887       7.776       6.666       5.555       4.445       3.335       2.224       1.114      3.3313E-03
   8    9.997       8.887       7.776       6.666       5.555       4.445       3.335       2.224       1.114      3.3313E-03
   9    9.997       8.887       7.776       6.666       5.555       4.445       3.335       2.224       1.114      3.3313E-03
  10    9.997       8.887       7.776       6.666       5.555       4.445       3.335       2.224       1.114      3.3313E-03
1
              HEAD IN LAYER   3 AT END OF TIME STEP  80 IN STRESS PERIOD    3
  ---------------------------------------------------------------------------

            1           2           3           4           5           6           7           8           9          10
 ........................................................................................................................
   1    9.997       8.887       7.776       6.666       5.555       4.445       3.335       2.224       1.114      3.3313E-03
   2    9.997       8.887       7.776       6.666       5.555       4.445       3.335       2.224       1.114      3.3313E-03
   3    9.997       8.887       7.776       6.666       5.555       4.445       3.335       2.224       1.114      3.3313E-03
   4    9.997       8.887       7.776       6.666       5.555       4.445       3.335       2.224       1.114      3.3313E-03
   5    9.997       8.887       7.776       6.666       5.555       4.445       3.335       2.224       1.114      3.3313E-03
   6    9.997       8.887       7.776       6.666       5.555       4.445       3.335       2.224       1.114      3.3313E-03
   7    9.997       8.887       7.776       6.666       5.555       4.445       3.335       2.224       1.114      3.3313E-03
   8    9.997       8.887       7.776       6.666       5.555       4.445       3.335       2.224       1.114      3.3313E-03
   9    9.997       8.887       7.776       6.666       5.555       4.445       3.335       2.224       1.114      3.3313E-03
  10    9.997       8.887       7.776       6.666       5.555       4.445       3.335       2.224       1.114      3.3313E-03
1
              HEAD IN LAYER   4 AT END OF TIME STEP  80 IN STRESS PERIOD    3
  ---------------------------------------------------------------------------

            1           2           3           4           5           6           7           8           9          10
 ........................................................................................................................
   1    9.997       8.887       7.776       6.666       5.555       4.445       3.335       2.224       1.114      3.3313E-03
   2    9.997       8.887       7.776       6.666       5.555       4.445       3.335       2.224       1.114      3.3313E-03
   3    9.997       8.887       7.776       6.666       5.555       4.445       3.335       2.224       1.114      3.3313E-03
   4    9.997       8.887       7.776       6.666       5.555       4.445       3.335       2.224       1.114      3.3313E-03
   5    9.997       8.887       7.776       6.666       5.555       4.445       3.335       2.224       1.114      3.3313E-03
   6    9.997       8.887       7.776       6.666       5.555       4.445       3.335       2.224       1.114      3.3313E-03
   7    9.997       8.887       7.776       6.666       5.555       4.445       3.335       2.224       1.114      3.3313E-03
   8    9.997       8.887       7.776       6.666       5.555       4.445       3.335       2.224       1.114      3.3313E-03
   9    9.997       8.887       7.776       6.666       5.555       4.445       3.335       2.224       1.114      3.3313E-03
  10    9.997       8.887       7.776       6.666       5.555       4.445       3.335       2.224       1.114      3.3313E-03

 HEAD WILL BE SAVED ON UNIT   51 AT END OF TIME STEP   80, STRESS PERIOD    3

 DRAWDOWN WILL BE SAVED ON UNIT   52 AT END OF TIME STEP   80, STRESS PERIOD    3
1
  VOLUMETRIC BUDGET FOR ENTIRE MODEL AT END OF TIME STEP   80, STRESS PERIOD   3
  ------------------------------------------------------------------------------

     CUMULATIVE VOLUMES      L**3       RATES FOR THIS TIME STEP      L**3/T
     ------------------                 ------------------------

           IN:                                      IN:
           ---                                      ---
             STORAGE =       1.0477E-08               STORAGE =           0.0000
       CONSTANT HEAD =           0.0000         CONSTANT HEAD =           0.0000
               WELLS =           0.0000                 WELLS =           0.0000
     HEAD DEP BOUNDS =      120602.5078       HEAD DEP BOUNDS =         666.3123

            TOTAL IN =      120602.5078              TOTAL IN =         666.3123

          OUT:                                     OUT:
          ----                                     ----
             STORAGE =       5.2387E-08               STORAGE =           0.0000
       CONSTANT HEAD =           0.0000         CONSTANT HEAD =           0.0000
               WELLS =           0.0000                 WELLS =           0.0000
     HEAD DEP BOUNDS =      120592.7578       HEAD DEP BOUNDS =         666.2595

           TOTAL OUT =      120592.7578             TOTAL OUT =         666.2595

            IN - OUT =           9.7500              IN - OUT =       5.2795E-02

 PERCENT DISCREPANCY =           0.01     PERCENT DISCREPANCY =           0.01






         TIME SUMMARY AT END OF TIME STEP   80 IN STRESS PERIOD    3
                    SECONDS     MINUTES      HOURS       DAYS        YEARS
                    -----------------------------------------------------------
   TIME STEP LENGTH  86400.      1440.0      24.000      1.0000     2.73785E-03
 STRESS PERIOD TIME 6.91200E+06 1.15200E+05  1920.0      80.000     0.21903    
         TOTAL TIME 1.56384E+07 2.60640E+05  4344.0      181.00     0.49555    
1
 
 SOLVING FOR HEAD 

 OUTPUT CONTROL FOR STRESS PERIOD    3   TIME STEP   81
    SAVE HEAD FOR ALL LAYERS
    SAVE DRAWDOWN FOR ALL LAYERS
    SAVE BUDGET
    PRINT HEAD FOR ALL LAYERS
    PRINT BUDGET
 UBDSV1 SAVING "         STORAGE" ON UNIT  53 AT TIME STEP 81, STRESS PERIOD   3
 UBDSV2 SAVING "   CONSTANT HEAD" ON UNIT  53 AT TIME STEP 81, STRESS PERIOD   3
 UBDSV1 SAVING "FLOW RIGHT FACE " ON UNIT  53 AT TIME STEP 81, STRESS PERIOD   3
 UBDSV1 SAVING "FLOW FRONT FACE " ON UNIT  53 AT TIME STEP 81, STRESS PERIOD   3
 UBDSV1 SAVING "FLOW LOWER FACE " ON UNIT  53 AT TIME STEP 81, STRESS PERIOD   3
1
              HEAD IN LAYER   1 AT END OF TIME STEP  81 IN STRESS PERIOD    3
  ---------------------------------------------------------------------------

            1           2           3           4           5           6           7           8           9          10
 ........................................................................................................................
   1    9.997       8.887       7.776       6.666       5.555       4.445       3.335       2.224       1.114      3.3313E-03
   2    9.997       8.887       7.776       6.666       5.555       4.445       3.335       2.224       1.114      3.3313E-03
   3    9.997       8.887       7.776       6.666       5.555       4.445       3.335       2.224       1.114      3.3313E-03
   4    9.997       8.887       7.776       6.666       5.555       4.445       3.335       2.224       1.114      3.3313E-03
   5    9.997       8.887       7.776       6.666       5.555       4.445       3.335       2.224       1.114      3.3313E-03
   6    9.997       8.887       7.776       6.666       5.555       4.445       3.335       2.224       1.114      3.3313E-03
   7    9.997       8.887       7.776       6.666       5.555       4.445       3.335       2.224       1.114      3.3313E-03
   8    9.997       8.887       7.776       6.666       5.555       4.445       3.335       2.224       1.114      3.3313E-03
   9    9.997       8.887       7.776       6.666       5.555       4.445       3.335       2.224       1.114      3.3313E-03
  10    9.997       8.887       7.776       6.666       5.555       4.445       3.335       2.224       1.114      3.3313E-03
1
              HEAD IN LAYER   2 AT END OF TIME STEP  81 IN STRESS PERIOD    3
  ---------------------------------------------------------------------------

            1           2           3           4           5           6           7           8           9          10
 ........................................................................................................................
   1    9.997       8.887       7.776       6.666       5.555       4.445       3.335       2.224       1.114      3.3313E-03
   2    9.997       8.887       7.776       6.666       5.555       4.445       3.335       2.224       1.114      3.3313E-03
   3    9.997       8.887       7.776       6.666       5.555       4.445       3.335       2.224       1.114      3.3313E-03
   4    9.997       8.887       7.776       6.666       5.555       4.445       3.335       2.224       1.114      3.3313E-03
   5    9.997       8.887       7.776       6.666       5.555       4.445       3.335       2.224       1.114      3.3313E-03
   6    9.997       8.887       7.776       6.666       5.555       4.445       3.335       2.224       1.114      3.3313E-03
   7    9.997       8.887       7.776       6.666       5.555       4.445       3.335       2.224       1.114      3.3313E-03
   8    9.997       8.887       7.776       6.666       5.555       4.445       3.335       2.224       1.114      3.3313E-03
   9    9.997       8.887       7.776       6.666       5.555       4.445       3.335       2.224       1.114      3.3313E-03
  10    9.997       8.887       7.776       6.666       5.555       4.445       3.335       2.224       1.114      3.3313E-03
1
              HEAD IN LAYER   3 AT END OF TIME STEP  81 IN STRESS PERIOD    3
  ---------------------------------------------------------------------------

            1           2           3           4           5           6           7           8           9          10
 ........................................................................................................................
   1    9.997       8.887       7.776       6.666       5.555       4.445       3.335       2.224       1.114      3.3313E-03
   2    9.997       8.887       7.776       6.666       5.555       4.445       3.335       2.224       1.114      3.3313E-03
   3    9.997       8.887       7.776       6.666       5.555       4.445       3.335       2.224       1.114      3.3313E-03
   4    9.997       8.887       7.776       6.666       5.555       4.445       3.335       2.224       1.114      3.3313E-03
   5    9.997       8.887       7.776       6.666       5.555       4.445       3.335       2.224       1.114      3.3313E-03
   6    9.997       8.887       7.776       6.666       5.555       4.445       3.335       2.224       1.114      3.3313E-03
   7    9.997       8.887       7.776       6.666       5.555       4.445       3.335       2.224       1.114      3.3313E-03
   8    9.997       8.887       7.776       6.666       5.555       4.445       3.335       2.224       1.114      3.3313E-03
   9    9.997       8.887       7.776       6.666       5.555       4.445       3.335       2.224       1.114      3.3313E-03
  10    9.997       8.887       7.776       6.666       5.555       4.445       3.335       2.224       1.114      3.3313E-03
1
              HEAD IN LAYER   4 AT END OF TIME STEP  81 IN STRESS PERIOD    3
  ---------------------------------------------------------------------------

            1           2           3           4           5           6           7           8           9          10
 ........................................................................................................................
   1    9.997       8.887       7.776       6.666       5.555       4.445       3.335       2.224       1.114      3.3313E-03
   2    9.997       8.887       7.776       6.666       5.555       4.445       3.335       2.224       1.114      3.3313E-03
   3    9.997       8.887       7.776       6.666       5.555       4.445       3.335       2.224       1.114      3.3313E-03
   4    9.997       8.887       7.776       6.666       5.555       4.445       3.335       2.224       1.114      3.3313E-03
   5    9.997       8.887       7.776       6.666       5.555       4.445       3.335       2.224       1.114      3.3313E-03
   6    9.997       8.887       7.776       6.666       5.555       4.445       3.335       2.224       1.114      3.3313E-03
   7    9.997       8.887       7.776       6.666       5.555       4.445       3.335       2.224       1.114      3.3313E-03
   8    9.997       8.887       7.776       6.666       5.555       4.445       3.335       2.224       1.114      3.3313E-03
   9    9.997       8.887       7.776       6.666       5.555       4.445       3.335       2.224       1.114      3.3313E-03
  10    9.997       8.887       7.776       6.666       5.555       4.445       3.335       2.224       1.114      3.3313E-03

 HEAD WILL BE SAVED ON UNIT   51 AT END OF TIME STEP   81, STRESS PERIOD    3

 DRAWDOWN WILL BE SAVED ON UNIT   52 AT END OF TIME STEP   81, STRESS PERIOD    3
1
  VOLUMETRIC BUDGET FOR ENTIRE MODEL AT END OF TIME STEP   81, STRESS PERIOD   3
  ------------------------------------------------------------------------------

     CUMULATIVE VOLUMES      L**3       RATES FOR THIS TIME STEP      L**3/T
     ------------------                 ------------------------

           IN:                                      IN:
           ---                                      ---
             STORAGE =       1.0477E-08               STORAGE =           0.0000
       CONSTANT HEAD =           0.0000         CONSTANT HEAD =           0.0000
               WELLS =           0.0000                 WELLS =           0.0000
     HEAD DEP BOUNDS =      121268.8203       HEAD DEP BOUNDS =         666.3123

            TOTAL IN =      121268.8203              TOTAL IN =         666.3123

          OUT:                                     OUT:
          ----                                     ----
             STORAGE =       5.2387E-08               STORAGE =           0.0000
       CONSTANT HEAD =           0.0000         CONSTANT HEAD =           0.0000
               WELLS =           0.0000                 WELLS =           0.0000
     HEAD DEP BOUNDS =      121259.0156       HEAD DEP BOUNDS =         666.2595

           TOTAL OUT =      121259.0156             TOTAL OUT =         666.2595

            IN - OUT =           9.8047              IN - OUT =       5.2795E-02

 PERCENT DISCREPANCY =           0.01     PERCENT DISCREPANCY =           0.01






         TIME SUMMARY AT END OF TIME STEP   81 IN STRESS PERIOD    3
                    SECONDS     MINUTES      HOURS       DAYS        YEARS
                    -----------------------------------------------------------
   TIME STEP LENGTH  86400.      1440.0      24.000      1.0000     2.73785E-03
 STRESS PERIOD TIME 6.99840E+06 1.16640E+05  1944.0      81.000     0.22177    
         TOTAL TIME 1.57248E+07 2.62080E+05  4368.0      182.00     0.49829    
1
 
 SOLVING FOR HEAD 

 OUTPUT CONTROL FOR STRESS PERIOD    3   TIME STEP   82
    SAVE HEAD FOR ALL LAYERS
    SAVE DRAWDOWN FOR ALL LAYERS
    SAVE BUDGET
    PRINT HEAD FOR ALL LAYERS
    PRINT BUDGET
 UBDSV1 SAVING "         STORAGE" ON UNIT  53 AT TIME STEP 82, STRESS PERIOD   3
 UBDSV2 SAVING "   CONSTANT HEAD" ON UNIT  53 AT TIME STEP 82, STRESS PERIOD   3
 UBDSV1 SAVING "FLOW RIGHT FACE " ON UNIT  53 AT TIME STEP 82, STRESS PERIOD   3
 UBDSV1 SAVING "FLOW FRONT FACE " ON UNIT  53 AT TIME STEP 82, STRESS PERIOD   3
 UBDSV1 SAVING "FLOW LOWER FACE " ON UNIT  53 AT TIME STEP 82, STRESS PERIOD   3
1
              HEAD IN LAYER   1 AT END OF TIME STEP  82 IN STRESS PERIOD    3
  ---------------------------------------------------------------------------

            1           2           3           4           5           6           7           8           9          10
 ........................................................................................................................
   1    9.997       8.887       7.776       6.666       5.555       4.445       3.335       2.224       1.114      3.3313E-03
   2    9.997       8.887       7.776       6.666       5.555       4.445       3.335       2.224       1.114      3.3313E-03
   3    9.997       8.887       7.776       6.666       5.555       4.445       3.335       2.224       1.114      3.3313E-03
   4    9.997       8.887       7.776       6.666       5.555       4.445       3.335       2.224       1.114      3.3313E-03
   5    9.997       8.887       7.776       6.666       5.555       4.445       3.335       2.224       1.114      3.3313E-03
   6    9.997       8.887       7.776       6.666       5.555       4.445       3.335       2.224       1.114      3.3313E-03
   7    9.997       8.887       7.776       6.666       5.555       4.445       3.335       2.224       1.114      3.3313E-03
   8    9.997       8.887       7.776       6.666       5.555       4.445       3.335       2.224       1.114      3.3313E-03
   9    9.997       8.887       7.776       6.666       5.555       4.445       3.335       2.224       1.114      3.3313E-03
  10    9.997       8.887       7.776       6.666       5.555       4.445       3.335       2.224       1.114      3.3313E-03
1
              HEAD IN LAYER   2 AT END OF TIME STEP  82 IN STRESS PERIOD    3
  ---------------------------------------------------------------------------

            1           2           3           4           5           6           7           8           9          10
 ........................................................................................................................
   1    9.997       8.887       7.776       6.666       5.555       4.445       3.335       2.224       1.114      3.3313E-03
   2    9.997       8.887       7.776       6.666       5.555       4.445       3.335       2.224       1.114      3.3313E-03
   3    9.997       8.887       7.776       6.666       5.555       4.445       3.335       2.224       1.114      3.3313E-03
   4    9.997       8.887       7.776       6.666       5.555       4.445       3.335       2.224       1.114      3.3313E-03
   5    9.997       8.887       7.776       6.666       5.555       4.445       3.335       2.224       1.114      3.3313E-03
   6    9.997       8.887       7.776       6.666       5.555       4.445       3.335       2.224       1.114      3.3313E-03
   7    9.997       8.887       7.776       6.666       5.555       4.445       3.335       2.224       1.114      3.3313E-03
   8    9.997       8.887       7.776       6.666       5.555       4.445       3.335       2.224       1.114      3.3313E-03
   9    9.997       8.887       7.776       6.666       5.555       4.445       3.335       2.224       1.114      3.3313E-03
  10    9.997       8.887       7.776       6.666       5.555       4.445       3.335       2.224       1.114      3.3313E-03
1
              HEAD IN LAYER   3 AT END OF TIME STEP  82 IN STRESS PERIOD    3
  ---------------------------------------------------------------------------

            1           2           3           4           5           6           7           8           9          10
 ........................................................................................................................
   1    9.997       8.887       7.776       6.666       5.555       4.445       3.335       2.224       1.114      3.3313E-03
   2    9.997       8.887       7.776       6.666       5.555       4.445       3.335       2.224       1.114      3.3313E-03
   3    9.997       8.887       7.776       6.666       5.555       4.445       3.335       2.224       1.114      3.3313E-03
   4    9.997       8.887       7.776       6.666       5.555       4.445       3.335       2.224       1.114      3.3313E-03
   5    9.997       8.887       7.776       6.666       5.555       4.445       3.335       2.224       1.114      3.3313E-03
   6    9.997       8.887       7.776       6.666       5.555       4.445       3.335       2.224       1.114      3.3313E-03
   7    9.997       8.887       7.776       6.666       5.555       4.445       3.335       2.224       1.114      3.3313E-03
   8    9.997       8.887       7.776       6.666       5.555       4.445       3.335       2.224       1.114      3.3313E-03
   9    9.997       8.887       7.776       6.666       5.555       4.445       3.335       2.224       1.114      3.3313E-03
  10    9.997       8.887       7.776       6.666       5.555       4.445       3.335       2.224       1.114      3.3313E-03
1
              HEAD IN LAYER   4 AT END OF TIME STEP  82 IN STRESS PERIOD    3
  ---------------------------------------------------------------------------

            1           2           3           4           5           6           7           8           9          10
 ........................................................................................................................
   1    9.997       8.887       7.776       6.666       5.555       4.445       3.335       2.224       1.114      3.3313E-03
   2    9.997       8.887       7.776       6.666       5.555       4.445       3.335       2.224       1.114      3.3313E-03
   3    9.997       8.887       7.776       6.666       5.555       4.445       3.335       2.224       1.114      3.3313E-03
   4    9.997       8.887       7.776       6.666       5.555       4.445       3.335       2.224       1.114      3.3313E-03
   5    9.997       8.887       7.776       6.666       5.555       4.445       3.335       2.224       1.114      3.3313E-03
   6    9.997       8.887       7.776       6.666       5.555       4.445       3.335       2.224       1.114      3.3313E-03
   7    9.997       8.887       7.776       6.666       5.555       4.445       3.335       2.224       1.114      3.3313E-03
   8    9.997       8.887       7.776       6.666       5.555       4.445       3.335       2.224       1.114      3.3313E-03
   9    9.997       8.887       7.776       6.666       5.555       4.445       3.335       2.224       1.114      3.3313E-03
  10    9.997       8.887       7.776       6.666       5.555       4.445       3.335       2.224       1.114      3.3313E-03

 HEAD WILL BE SAVED ON UNIT   51 AT END OF TIME STEP   82, STRESS PERIOD    3

 DRAWDOWN WILL BE SAVED ON UNIT   52 AT END OF TIME STEP   82, STRESS PERIOD    3
1
  VOLUMETRIC BUDGET FOR ENTIRE MODEL AT END OF TIME STEP   82, STRESS PERIOD   3
  ------------------------------------------------------------------------------

     CUMULATIVE VOLUMES      L**3       RATES FOR THIS TIME STEP      L**3/T
     ------------------                 ------------------------

           IN:                                      IN:
           ---                                      ---
             STORAGE =       1.0477E-08               STORAGE =           0.0000
       CONSTANT HEAD =           0.0000         CONSTANT HEAD =           0.0000
               WELLS =           0.0000                 WELLS =           0.0000
     HEAD DEP BOUNDS =      121935.1328       HEAD DEP BOUNDS =         666.3123

            TOTAL IN =      121935.1328              TOTAL IN =         666.3123

          OUT:                                     OUT:
          ----                                     ----
             STORAGE =       5.2387E-08               STORAGE =           0.0000
       CONSTANT HEAD =           0.0000         CONSTANT HEAD =           0.0000
               WELLS =           0.0000                 WELLS =           0.0000
     HEAD DEP BOUNDS =      121925.2734       HEAD DEP BOUNDS =         666.2595

           TOTAL OUT =      121925.2734             TOTAL OUT =         666.2595

            IN - OUT =           9.8594              IN - OUT =       5.2795E-02

 PERCENT DISCREPANCY =           0.01     PERCENT DISCREPANCY =           0.01






         TIME SUMMARY AT END OF TIME STEP   82 IN STRESS PERIOD    3
                    SECONDS     MINUTES      HOURS       DAYS        YEARS
                    -----------------------------------------------------------
   TIME STEP LENGTH  86400.      1440.0      24.000      1.0000     2.73785E-03
 STRESS PERIOD TIME 7.08480E+06 1.18080E+05  1968.0      82.000     0.22450    
         TOTAL TIME 1.58112E+07 2.63520E+05  4392.0      183.00     0.50103    
1
 
 SOLVING FOR HEAD 

 OUTPUT CONTROL FOR STRESS PERIOD    3   TIME STEP   83
    SAVE HEAD FOR ALL LAYERS
    SAVE DRAWDOWN FOR ALL LAYERS
    SAVE BUDGET
    PRINT HEAD FOR ALL LAYERS
    PRINT BUDGET
 UBDSV1 SAVING "         STORAGE" ON UNIT  53 AT TIME STEP 83, STRESS PERIOD   3
 UBDSV2 SAVING "   CONSTANT HEAD" ON UNIT  53 AT TIME STEP 83, STRESS PERIOD   3
 UBDSV1 SAVING "FLOW RIGHT FACE " ON UNIT  53 AT TIME STEP 83, STRESS PERIOD   3
 UBDSV1 SAVING "FLOW FRONT FACE " ON UNIT  53 AT TIME STEP 83, STRESS PERIOD   3
 UBDSV1 SAVING "FLOW LOWER FACE " ON UNIT  53 AT TIME STEP 83, STRESS PERIOD   3
1
              HEAD IN LAYER   1 AT END OF TIME STEP  83 IN STRESS PERIOD    3
  ---------------------------------------------------------------------------

            1           2           3           4           5           6           7           8           9          10
 ........................................................................................................................
   1    9.997       8.887       7.776       6.666       5.555       4.445       3.335       2.224       1.114      3.3313E-03
   2    9.997       8.887       7.776       6.666       5.555       4.445       3.335       2.224       1.114      3.3313E-03
   3    9.997       8.887       7.776       6.666       5.555       4.445       3.335       2.224       1.114      3.3313E-03
   4    9.997       8.887       7.776       6.666       5.555       4.445       3.335       2.224       1.114      3.3313E-03
   5    9.997       8.887       7.776       6.666       5.555       4.445       3.335       2.224       1.114      3.3313E-03
   6    9.997       8.887       7.776       6.666       5.555       4.445       3.335       2.224       1.114      3.3313E-03
   7    9.997       8.887       7.776       6.666       5.555       4.445       3.335       2.224       1.114      3.3313E-03
   8    9.997       8.887       7.776       6.666       5.555       4.445       3.335       2.224       1.114      3.3313E-03
   9    9.997       8.887       7.776       6.666       5.555       4.445       3.335       2.224       1.114      3.3313E-03
  10    9.997       8.887       7.776       6.666       5.555       4.445       3.335       2.224       1.114      3.3313E-03
1
              HEAD IN LAYER   2 AT END OF TIME STEP  83 IN STRESS PERIOD    3
  ---------------------------------------------------------------------------

            1           2           3           4           5           6           7           8           9          10
 ........................................................................................................................
   1    9.997       8.887       7.776       6.666       5.555       4.445       3.335       2.224       1.114      3.3313E-03
   2    9.997       8.887       7.776       6.666       5.555       4.445       3.335       2.224       1.114      3.3313E-03
   3    9.997       8.887       7.776       6.666       5.555       4.445       3.335       2.224       1.114      3.3313E-03
   4    9.997       8.887       7.776       6.666       5.555       4.445       3.335       2.224       1.114      3.3313E-03
   5    9.997       8.887       7.776       6.666       5.555       4.445       3.335       2.224       1.114      3.3313E-03
   6    9.997       8.887       7.776       6.666       5.555       4.445       3.335       2.224       1.114      3.3313E-03
   7    9.997       8.887       7.776       6.666       5.555       4.445       3.335       2.224       1.114      3.3313E-03
   8    9.997       8.887       7.776       6.666       5.555       4.445       3.335       2.224       1.114      3.3313E-03
   9    9.997       8.887       7.776       6.666       5.555       4.445       3.335       2.224       1.114      3.3313E-03
  10    9.997       8.887       7.776       6.666       5.555       4.445       3.335       2.224       1.114      3.3313E-03
1
              HEAD IN LAYER   3 AT END OF TIME STEP  83 IN STRESS PERIOD    3
  ---------------------------------------------------------------------------

            1           2           3           4           5           6           7           8           9          10
 ........................................................................................................................
   1    9.997       8.887       7.776       6.666       5.555       4.445       3.335       2.224       1.114      3.3313E-03
   2    9.997       8.887       7.776       6.666       5.555       4.445       3.335       2.224       1.114      3.3313E-03
   3    9.997       8.887       7.776       6.666       5.555       4.445       3.335       2.224       1.114      3.3313E-03
   4    9.997       8.887       7.776       6.666       5.555       4.445       3.335       2.224       1.114      3.3313E-03
   5    9.997       8.887       7.776       6.666       5.555       4.445       3.335       2.224       1.114      3.3313E-03
   6    9.997       8.887       7.776       6.666       5.555       4.445       3.335       2.224       1.114      3.3313E-03
   7    9.997       8.887       7.776       6.666       5.555       4.445       3.335       2.224       1.114      3.3313E-03
   8    9.997       8.887       7.776       6.666       5.555       4.445       3.335       2.224       1.114      3.3313E-03
   9    9.997       8.887       7.776       6.666       5.555       4.445       3.335       2.224       1.114      3.3313E-03
  10    9.997       8.887       7.776       6.666       5.555       4.445       3.335       2.224       1.114      3.3313E-03
1
              HEAD IN LAYER   4 AT END OF TIME STEP  83 IN STRESS PERIOD    3
  ---------------------------------------------------------------------------

            1           2           3           4           5           6           7           8           9          10
 ........................................................................................................................
   1    9.997       8.887       7.776       6.666       5.555       4.445       3.335       2.224       1.114      3.3313E-03
   2    9.997       8.887       7.776       6.666       5.555       4.445       3.335       2.224       1.114      3.3313E-03
   3    9.997       8.887       7.776       6.666       5.555       4.445       3.335       2.224       1.114      3.3313E-03
   4    9.997       8.887       7.776       6.666       5.555       4.445       3.335       2.224       1.114      3.3313E-03
   5    9.997       8.887       7.776       6.666       5.555       4.445       3.335       2.224       1.114      3.3313E-03
   6    9.997       8.887       7.776       6.666       5.555       4.445       3.335       2.224       1.114      3.3313E-03
   7    9.997       8.887       7.776       6.666       5.555       4.445       3.335       2.224       1.114      3.3313E-03
   8    9.997       8.887       7.776       6.666       5.555       4.445       3.335       2.224       1.114      3.3313E-03
   9    9.997       8.887       7.776       6.666       5.555       4.445       3.335       2.224       1.114      3.3313E-03
  10    9.997       8.887       7.776       6.666       5.555       4.445       3.335       2.224       1.114      3.3313E-03

 HEAD WILL BE SAVED ON UNIT   51 AT END OF TIME STEP   83, STRESS PERIOD    3

 DRAWDOWN WILL BE SAVED ON UNIT   52 AT END OF TIME STEP   83, STRESS PERIOD    3
1
  VOLUMETRIC BUDGET FOR ENTIRE MODEL AT END OF TIME STEP   83, STRESS PERIOD   3
  ------------------------------------------------------------------------------

     CUMULATIVE VOLUMES      L**3       RATES FOR THIS TIME STEP      L**3/T
     ------------------                 ------------------------

           IN:                                      IN:
           ---                                      ---
             STORAGE =       1.0477E-08               STORAGE =           0.0000
       CONSTANT HEAD =           0.0000         CONSTANT HEAD =           0.0000
               WELLS =           0.0000                 WELLS =           0.0000
     HEAD DEP BOUNDS =      122601.4453       HEAD DEP BOUNDS =         666.3123

            TOTAL IN =      122601.4453              TOTAL IN =         666.3123

          OUT:                                     OUT:
          ----                                     ----
             STORAGE =       5.2387E-08               STORAGE =           0.0000
       CONSTANT HEAD =           0.0000         CONSTANT HEAD =           0.0000
               WELLS =           0.0000                 WELLS =           0.0000
     HEAD DEP BOUNDS =      122591.5312       HEAD DEP BOUNDS =         666.2595

           TOTAL OUT =      122591.5312             TOTAL OUT =         666.2595

            IN - OUT =           9.9141              IN - OUT =       5.2795E-02

 PERCENT DISCREPANCY =           0.01     PERCENT DISCREPANCY =           0.01






         TIME SUMMARY AT END OF TIME STEP   83 IN STRESS PERIOD    3
                    SECONDS     MINUTES      HOURS       DAYS        YEARS
                    -----------------------------------------------------------
   TIME STEP LENGTH  86400.      1440.0      24.000      1.0000     2.73785E-03
 STRESS PERIOD TIME 7.17120E+06 1.19520E+05  1992.0      83.000     0.22724    
         TOTAL TIME 1.58976E+07 2.64960E+05  4416.0      184.00     0.50376    
1
 
 SOLVING FOR HEAD 

 OUTPUT CONTROL FOR STRESS PERIOD    3   TIME STEP   84
    SAVE HEAD FOR ALL LAYERS
    SAVE DRAWDOWN FOR ALL LAYERS
    SAVE BUDGET
    PRINT HEAD FOR ALL LAYERS
    PRINT BUDGET
 UBDSV1 SAVING "         STORAGE" ON UNIT  53 AT TIME STEP 84, STRESS PERIOD   3
 UBDSV2 SAVING "   CONSTANT HEAD" ON UNIT  53 AT TIME STEP 84, STRESS PERIOD   3
 UBDSV1 SAVING "FLOW RIGHT FACE " ON UNIT  53 AT TIME STEP 84, STRESS PERIOD   3
 UBDSV1 SAVING "FLOW FRONT FACE " ON UNIT  53 AT TIME STEP 84, STRESS PERIOD   3
 UBDSV1 SAVING "FLOW LOWER FACE " ON UNIT  53 AT TIME STEP 84, STRESS PERIOD   3
1
              HEAD IN LAYER   1 AT END OF TIME STEP  84 IN STRESS PERIOD    3
  ---------------------------------------------------------------------------

            1           2           3           4           5           6           7           8           9          10
 ........................................................................................................................
   1    9.997       8.887       7.776       6.666       5.555       4.445       3.335       2.224       1.114      3.3313E-03
   2    9.997       8.887       7.776       6.666       5.555       4.445       3.335       2.224       1.114      3.3313E-03
   3    9.997       8.887       7.776       6.666       5.555       4.445       3.335       2.224       1.114      3.3313E-03
   4    9.997       8.887       7.776       6.666       5.555       4.445       3.335       2.224       1.114      3.3313E-03
   5    9.997       8.887       7.776       6.666       5.555       4.445       3.335       2.224       1.114      3.3313E-03
   6    9.997       8.887       7.776       6.666       5.555       4.445       3.335       2.224       1.114      3.3313E-03
   7    9.997       8.887       7.776       6.666       5.555       4.445       3.335       2.224       1.114      3.3313E-03
   8    9.997       8.887       7.776       6.666       5.555       4.445       3.335       2.224       1.114      3.3313E-03
   9    9.997       8.887       7.776       6.666       5.555       4.445       3.335       2.224       1.114      3.3313E-03
  10    9.997       8.887       7.776       6.666       5.555       4.445       3.335       2.224       1.114      3.3313E-03
1
              HEAD IN LAYER   2 AT END OF TIME STEP  84 IN STRESS PERIOD    3
  ---------------------------------------------------------------------------

            1           2           3           4           5           6           7           8           9          10
 ........................................................................................................................
   1    9.997       8.887       7.776       6.666       5.555       4.445       3.335       2.224       1.114      3.3313E-03
   2    9.997       8.887       7.776       6.666       5.555       4.445       3.335       2.224       1.114      3.3313E-03
   3    9.997       8.887       7.776       6.666       5.555       4.445       3.335       2.224       1.114      3.3313E-03
   4    9.997       8.887       7.776       6.666       5.555       4.445       3.335       2.224       1.114      3.3313E-03
   5    9.997       8.887       7.776       6.666       5.555       4.445       3.335       2.224       1.114      3.3313E-03
   6    9.997       8.887       7.776       6.666       5.555       4.445       3.335       2.224       1.114      3.3313E-03
   7    9.997       8.887       7.776       6.666       5.555       4.445       3.335       2.224       1.114      3.3313E-03
   8    9.997       8.887       7.776       6.666       5.555       4.445       3.335       2.224       1.114      3.3313E-03
   9    9.997       8.887       7.776       6.666       5.555       4.445       3.335       2.224       1.114      3.3313E-03
  10    9.997       8.887       7.776       6.666       5.555       4.445       3.335       2.224       1.114      3.3313E-03
1
              HEAD IN LAYER   3 AT END OF TIME STEP  84 IN STRESS PERIOD    3
  ---------------------------------------------------------------------------

            1           2           3           4           5           6           7           8           9          10
 ........................................................................................................................
   1    9.997       8.887       7.776       6.666       5.555       4.445       3.335       2.224       1.114      3.3313E-03
   2    9.997       8.887       7.776       6.666       5.555       4.445       3.335       2.224       1.114      3.3313E-03
   3    9.997       8.887       7.776       6.666       5.555       4.445       3.335       2.224       1.114      3.3313E-03
   4    9.997       8.887       7.776       6.666       5.555       4.445       3.335       2.224       1.114      3.3313E-03
   5    9.997       8.887       7.776       6.666       5.555       4.445       3.335       2.224       1.114      3.3313E-03
   6    9.997       8.887       7.776       6.666       5.555       4.445       3.335       2.224       1.114      3.3313E-03
   7    9.997       8.887       7.776       6.666       5.555       4.445       3.335       2.224       1.114      3.3313E-03
   8    9.997       8.887       7.776       6.666       5.555       4.445       3.335       2.224       1.114      3.3313E-03
   9    9.997       8.887       7.776       6.666       5.555       4.445       3.335       2.224       1.114      3.3313E-03
  10    9.997       8.887       7.776       6.666       5.555       4.445       3.335       2.224       1.114      3.3313E-03
1
              HEAD IN LAYER   4 AT END OF TIME STEP  84 IN STRESS PERIOD    3
  ---------------------------------------------------------------------------

            1           2           3           4           5           6           7           8           9          10
 ........................................................................................................................
   1    9.997       8.887       7.776       6.666       5.555       4.445       3.335       2.224       1.114      3.3313E-03
   2    9.997       8.887       7.776       6.666       5.555       4.445       3.335       2.224       1.114      3.3313E-03
   3    9.997       8.887       7.776       6.666       5.555       4.445       3.335       2.224       1.114      3.3313E-03
   4    9.997       8.887       7.776       6.666       5.555       4.445       3.335       2.224       1.114      3.3313E-03
   5    9.997       8.887       7.776       6.666       5.555       4.445       3.335       2.224       1.114      3.3313E-03
   6    9.997       8.887       7.776       6.666       5.555       4.445       3.335       2.224       1.114      3.3313E-03
   7    9.997       8.887       7.776       6.666       5.555       4.445       3.335       2.224       1.114      3.3313E-03
   8    9.997       8.887       7.776       6.666       5.555       4.445       3.335       2.224       1.114      3.3313E-03
   9    9.997       8.887       7.776       6.666       5.555       4.445       3.335       2.224       1.114      3.3313E-03
  10    9.997       8.887       7.776       6.666       5.555       4.445       3.335       2.224       1.114      3.3313E-03

 HEAD WILL BE SAVED ON UNIT   51 AT END OF TIME STEP   84, STRESS PERIOD    3

 DRAWDOWN WILL BE SAVED ON UNIT   52 AT END OF TIME STEP   84, STRESS PERIOD    3
1
  VOLUMETRIC BUDGET FOR ENTIRE MODEL AT END OF TIME STEP   84, STRESS PERIOD   3
  ------------------------------------------------------------------------------

     CUMULATIVE VOLUMES      L**3       RATES FOR THIS TIME STEP      L**3/T
     ------------------                 ------------------------

           IN:                                      IN:
           ---                                      ---
             STORAGE =       1.0477E-08               STORAGE =           0.0000
       CONSTANT HEAD =           0.0000         CONSTANT HEAD =           0.0000
               WELLS =           0.0000                 WELLS =           0.0000
     HEAD DEP BOUNDS =      123267.7578       HEAD DEP BOUNDS =         666.3123

            TOTAL IN =      123267.7578              TOTAL IN =         666.3123

          OUT:                                     OUT:
          ----                                     ----
             STORAGE =       5.2387E-08               STORAGE =           0.0000
       CONSTANT HEAD =           0.0000         CONSTANT HEAD =           0.0000
               WELLS =           0.0000                 WELLS =           0.0000
     HEAD DEP BOUNDS =      123257.7891       HEAD DEP BOUNDS =         666.2595

           TOTAL OUT =      123257.7891             TOTAL OUT =         666.2595

            IN - OUT =           9.9688              IN - OUT =       5.2795E-02

 PERCENT DISCREPANCY =           0.01     PERCENT DISCREPANCY =           0.01






         TIME SUMMARY AT END OF TIME STEP   84 IN STRESS PERIOD    3
                    SECONDS     MINUTES      HOURS       DAYS        YEARS
                    -----------------------------------------------------------
   TIME STEP LENGTH  86400.      1440.0      24.000      1.0000     2.73785E-03
 STRESS PERIOD TIME 7.25760E+06 1.20960E+05  2016.0      84.000     0.22998    
         TOTAL TIME 1.59840E+07 2.66400E+05  4440.0      185.00     0.50650    
1
 
 SOLVING FOR HEAD 

 OUTPUT CONTROL FOR STRESS PERIOD    3   TIME STEP   85
    SAVE HEAD FOR ALL LAYERS
    SAVE DRAWDOWN FOR ALL LAYERS
    SAVE BUDGET
    PRINT HEAD FOR ALL LAYERS
    PRINT BUDGET
 UBDSV1 SAVING "         STORAGE" ON UNIT  53 AT TIME STEP 85, STRESS PERIOD   3
 UBDSV2 SAVING "   CONSTANT HEAD" ON UNIT  53 AT TIME STEP 85, STRESS PERIOD   3
 UBDSV1 SAVING "FLOW RIGHT FACE " ON UNIT  53 AT TIME STEP 85, STRESS PERIOD   3
 UBDSV1 SAVING "FLOW FRONT FACE " ON UNIT  53 AT TIME STEP 85, STRESS PERIOD   3
 UBDSV1 SAVING "FLOW LOWER FACE " ON UNIT  53 AT TIME STEP 85, STRESS PERIOD   3
1
              HEAD IN LAYER   1 AT END OF TIME STEP  85 IN STRESS PERIOD    3
  ---------------------------------------------------------------------------

            1           2           3           4           5           6           7           8           9          10
 ........................................................................................................................
   1    9.997       8.887       7.776       6.666       5.555       4.445       3.335       2.224       1.114      3.3313E-03
   2    9.997       8.887       7.776       6.666       5.555       4.445       3.335       2.224       1.114      3.3313E-03
   3    9.997       8.887       7.776       6.666       5.555       4.445       3.335       2.224       1.114      3.3313E-03
   4    9.997       8.887       7.776       6.666       5.555       4.445       3.335       2.224       1.114      3.3313E-03
   5    9.997       8.887       7.776       6.666       5.555       4.445       3.335       2.224       1.114      3.3313E-03
   6    9.997       8.887       7.776       6.666       5.555       4.445       3.335       2.224       1.114      3.3313E-03
   7    9.997       8.887       7.776       6.666       5.555       4.445       3.335       2.224       1.114      3.3313E-03
   8    9.997       8.887       7.776       6.666       5.555       4.445       3.335       2.224       1.114      3.3313E-03
   9    9.997       8.887       7.776       6.666       5.555       4.445       3.335       2.224       1.114      3.3313E-03
  10    9.997       8.887       7.776       6.666       5.555       4.445       3.335       2.224       1.114      3.3313E-03
1
              HEAD IN LAYER   2 AT END OF TIME STEP  85 IN STRESS PERIOD    3
  ---------------------------------------------------------------------------

            1           2           3           4           5           6           7           8           9          10
 ........................................................................................................................
   1    9.997       8.887       7.776       6.666       5.555       4.445       3.335       2.224       1.114      3.3313E-03
   2    9.997       8.887       7.776       6.666       5.555       4.445       3.335       2.224       1.114      3.3313E-03
   3    9.997       8.887       7.776       6.666       5.555       4.445       3.335       2.224       1.114      3.3313E-03
   4    9.997       8.887       7.776       6.666       5.555       4.445       3.335       2.224       1.114      3.3313E-03
   5    9.997       8.887       7.776       6.666       5.555       4.445       3.335       2.224       1.114      3.3313E-03
   6    9.997       8.887       7.776       6.666       5.555       4.445       3.335       2.224       1.114      3.3313E-03
   7    9.997       8.887       7.776       6.666       5.555       4.445       3.335       2.224       1.114      3.3313E-03
   8    9.997       8.887       7.776       6.666       5.555       4.445       3.335       2.224       1.114      3.3313E-03
   9    9.997       8.887       7.776       6.666       5.555       4.445       3.335       2.224       1.114      3.3313E-03
  10    9.997       8.887       7.776       6.666       5.555       4.445       3.335       2.224       1.114      3.3313E-03
1
              HEAD IN LAYER   3 AT END OF TIME STEP  85 IN STRESS PERIOD    3
  ---------------------------------------------------------------------------

            1           2           3           4           5           6           7           8           9          10
 ........................................................................................................................
   1    9.997       8.887       7.776       6.666       5.555       4.445       3.335       2.224       1.114      3.3313E-03
   2    9.997       8.887       7.776       6.666       5.555       4.445       3.335       2.224       1.114      3.3313E-03
   3    9.997       8.887       7.776       6.666       5.555       4.445       3.335       2.224       1.114      3.3313E-03
   4    9.997       8.887       7.776       6.666       5.555       4.445       3.335       2.224       1.114      3.3313E-03
   5    9.997       8.887       7.776       6.666       5.555       4.445       3.335       2.224       1.114      3.3313E-03
   6    9.997       8.887       7.776       6.666       5.555       4.445       3.335       2.224       1.114      3.3313E-03
   7    9.997       8.887       7.776       6.666       5.555       4.445       3.335       2.224       1.114      3.3313E-03
   8    9.997       8.887       7.776       6.666       5.555       4.445       3.335       2.224       1.114      3.3313E-03
   9    9.997       8.887       7.776       6.666       5.555       4.445       3.335       2.224       1.114      3.3313E-03
  10    9.997       8.887       7.776       6.666       5.555       4.445       3.335       2.224       1.114      3.3313E-03
1
              HEAD IN LAYER   4 AT END OF TIME STEP  85 IN STRESS PERIOD    3
  ---------------------------------------------------------------------------

            1           2           3           4           5           6           7           8           9          10
 ........................................................................................................................
   1    9.997       8.887       7.776       6.666       5.555       4.445       3.335       2.224       1.114      3.3313E-03
   2    9.997       8.887       7.776       6.666       5.555       4.445       3.335       2.224       1.114      3.3313E-03
   3    9.997       8.887       7.776       6.666       5.555       4.445       3.335       2.224       1.114      3.3313E-03
   4    9.997       8.887       7.776       6.666       5.555       4.445       3.335       2.224       1.114      3.3313E-03
   5    9.997       8.887       7.776       6.666       5.555       4.445       3.335       2.224       1.114      3.3313E-03
   6    9.997       8.887       7.776       6.666       5.555       4.445       3.335       2.224       1.114      3.3313E-03
   7    9.997       8.887       7.776       6.666       5.555       4.445       3.335       2.224       1.114      3.3313E-03
   8    9.997       8.887       7.776       6.666       5.555       4.445       3.335       2.224       1.114      3.3313E-03
   9    9.997       8.887       7.776       6.666       5.555       4.445       3.335       2.224       1.114      3.3313E-03
  10    9.997       8.887       7.776       6.666       5.555       4.445       3.335       2.224       1.114      3.3313E-03

 HEAD WILL BE SAVED ON UNIT   51 AT END OF TIME STEP   85, STRESS PERIOD    3

 DRAWDOWN WILL BE SAVED ON UNIT   52 AT END OF TIME STEP   85, STRESS PERIOD    3
1
  VOLUMETRIC BUDGET FOR ENTIRE MODEL AT END OF TIME STEP   85, STRESS PERIOD   3
  ------------------------------------------------------------------------------

     CUMULATIVE VOLUMES      L**3       RATES FOR THIS TIME STEP      L**3/T
     ------------------                 ------------------------

           IN:                                      IN:
           ---                                      ---
             STORAGE =       1.0477E-08               STORAGE =           0.0000
       CONSTANT HEAD =           0.0000         CONSTANT HEAD =           0.0000
               WELLS =           0.0000                 WELLS =           0.0000
     HEAD DEP BOUNDS =      123934.0703       HEAD DEP BOUNDS =         666.3123

            TOTAL IN =      123934.0703              TOTAL IN =         666.3123

          OUT:                                     OUT:
          ----                                     ----
             STORAGE =       5.2387E-08               STORAGE =           0.0000
       CONSTANT HEAD =           0.0000         CONSTANT HEAD =           0.0000
               WELLS =           0.0000                 WELLS =           0.0000
     HEAD DEP BOUNDS =      123924.0469       HEAD DEP BOUNDS =         666.2595

           TOTAL OUT =      123924.0469             TOTAL OUT =         666.2595

            IN - OUT =          10.0234              IN - OUT =       5.2795E-02

 PERCENT DISCREPANCY =           0.01     PERCENT DISCREPANCY =           0.01






         TIME SUMMARY AT END OF TIME STEP   85 IN STRESS PERIOD    3
                    SECONDS     MINUTES      HOURS       DAYS        YEARS
                    -----------------------------------------------------------
   TIME STEP LENGTH  86400.      1440.0      24.000      1.0000     2.73785E-03
 STRESS PERIOD TIME 7.34400E+06 1.22400E+05  2040.0      85.000     0.23272    
         TOTAL TIME 1.60704E+07 2.67840E+05  4464.0      186.00     0.50924    
1
 
 SOLVING FOR HEAD 

 OUTPUT CONTROL FOR STRESS PERIOD    3   TIME STEP   86
    SAVE HEAD FOR ALL LAYERS
    SAVE DRAWDOWN FOR ALL LAYERS
    SAVE BUDGET
    PRINT HEAD FOR ALL LAYERS
    PRINT BUDGET
 UBDSV1 SAVING "         STORAGE" ON UNIT  53 AT TIME STEP 86, STRESS PERIOD   3
 UBDSV2 SAVING "   CONSTANT HEAD" ON UNIT  53 AT TIME STEP 86, STRESS PERIOD   3
 UBDSV1 SAVING "FLOW RIGHT FACE " ON UNIT  53 AT TIME STEP 86, STRESS PERIOD   3
 UBDSV1 SAVING "FLOW FRONT FACE " ON UNIT  53 AT TIME STEP 86, STRESS PERIOD   3
 UBDSV1 SAVING "FLOW LOWER FACE " ON UNIT  53 AT TIME STEP 86, STRESS PERIOD   3
1
              HEAD IN LAYER   1 AT END OF TIME STEP  86 IN STRESS PERIOD    3
  ---------------------------------------------------------------------------

            1           2           3           4           5           6           7           8           9          10
 ........................................................................................................................
   1    9.997       8.887       7.776       6.666       5.555       4.445       3.335       2.224       1.114      3.3313E-03
   2    9.997       8.887       7.776       6.666       5.555       4.445       3.335       2.224       1.114      3.3313E-03
   3    9.997       8.887       7.776       6.666       5.555       4.445       3.335       2.224       1.114      3.3313E-03
   4    9.997       8.887       7.776       6.666       5.555       4.445       3.335       2.224       1.114      3.3313E-03
   5    9.997       8.887       7.776       6.666       5.555       4.445       3.335       2.224       1.114      3.3313E-03
   6    9.997       8.887       7.776       6.666       5.555       4.445       3.335       2.224       1.114      3.3313E-03
   7    9.997       8.887       7.776       6.666       5.555       4.445       3.335       2.224       1.114      3.3313E-03
   8    9.997       8.887       7.776       6.666       5.555       4.445       3.335       2.224       1.114      3.3313E-03
   9    9.997       8.887       7.776       6.666       5.555       4.445       3.335       2.224       1.114      3.3313E-03
  10    9.997       8.887       7.776       6.666       5.555       4.445       3.335       2.224       1.114      3.3313E-03
1
              HEAD IN LAYER   2 AT END OF TIME STEP  86 IN STRESS PERIOD    3
  ---------------------------------------------------------------------------

            1           2           3           4           5           6           7           8           9          10
 ........................................................................................................................
   1    9.997       8.887       7.776       6.666       5.555       4.445       3.335       2.224       1.114      3.3313E-03
   2    9.997       8.887       7.776       6.666       5.555       4.445       3.335       2.224       1.114      3.3313E-03
   3    9.997       8.887       7.776       6.666       5.555       4.445       3.335       2.224       1.114      3.3313E-03
   4    9.997       8.887       7.776       6.666       5.555       4.445       3.335       2.224       1.114      3.3313E-03
   5    9.997       8.887       7.776       6.666       5.555       4.445       3.335       2.224       1.114      3.3313E-03
   6    9.997       8.887       7.776       6.666       5.555       4.445       3.335       2.224       1.114      3.3313E-03
   7    9.997       8.887       7.776       6.666       5.555       4.445       3.335       2.224       1.114      3.3313E-03
   8    9.997       8.887       7.776       6.666       5.555       4.445       3.335       2.224       1.114      3.3313E-03
   9    9.997       8.887       7.776       6.666       5.555       4.445       3.335       2.224       1.114      3.3313E-03
  10    9.997       8.887       7.776       6.666       5.555       4.445       3.335       2.224       1.114      3.3313E-03
1
              HEAD IN LAYER   3 AT END OF TIME STEP  86 IN STRESS PERIOD    3
  ---------------------------------------------------------------------------

            1           2           3           4           5           6           7           8           9          10
 ........................................................................................................................
   1    9.997       8.887       7.776       6.666       5.555       4.445       3.335       2.224       1.114      3.3313E-03
   2    9.997       8.887       7.776       6.666       5.555       4.445       3.335       2.224       1.114      3.3313E-03
   3    9.997       8.887       7.776       6.666       5.555       4.445       3.335       2.224       1.114      3.3313E-03
   4    9.997       8.887       7.776       6.666       5.555       4.445       3.335       2.224       1.114      3.3313E-03
   5    9.997       8.887       7.776       6.666       5.555       4.445       3.335       2.224       1.114      3.3313E-03
   6    9.997       8.887       7.776       6.666       5.555       4.445       3.335       2.224       1.114      3.3313E-03
   7    9.997       8.887       7.776       6.666       5.555       4.445       3.335       2.224       1.114      3.3313E-03
   8    9.997       8.887       7.776       6.666       5.555       4.445       3.335       2.224       1.114      3.3313E-03
   9    9.997       8.887       7.776       6.666       5.555       4.445       3.335       2.224       1.114      3.3313E-03
  10    9.997       8.887       7.776       6.666       5.555       4.445       3.335       2.224       1.114      3.3313E-03
1
              HEAD IN LAYER   4 AT END OF TIME STEP  86 IN STRESS PERIOD    3
  ---------------------------------------------------------------------------

            1           2           3           4           5           6           7           8           9          10
 ........................................................................................................................
   1    9.997       8.887       7.776       6.666       5.555       4.445       3.335       2.224       1.114      3.3313E-03
   2    9.997       8.887       7.776       6.666       5.555       4.445       3.335       2.224       1.114      3.3313E-03
   3    9.997       8.887       7.776       6.666       5.555       4.445       3.335       2.224       1.114      3.3313E-03
   4    9.997       8.887       7.776       6.666       5.555       4.445       3.335       2.224       1.114      3.3313E-03
   5    9.997       8.887       7.776       6.666       5.555       4.445       3.335       2.224       1.114      3.3313E-03
   6    9.997       8.887       7.776       6.666       5.555       4.445       3.335       2.224       1.114      3.3313E-03
   7    9.997       8.887       7.776       6.666       5.555       4.445       3.335       2.224       1.114      3.3313E-03
   8    9.997       8.887       7.776       6.666       5.555       4.445       3.335       2.224       1.114      3.3313E-03
   9    9.997       8.887       7.776       6.666       5.555       4.445       3.335       2.224       1.114      3.3313E-03
  10    9.997       8.887       7.776       6.666       5.555       4.445       3.335       2.224       1.114      3.3313E-03

 HEAD WILL BE SAVED ON UNIT   51 AT END OF TIME STEP   86, STRESS PERIOD    3

 DRAWDOWN WILL BE SAVED ON UNIT   52 AT END OF TIME STEP   86, STRESS PERIOD    3
1
  VOLUMETRIC BUDGET FOR ENTIRE MODEL AT END OF TIME STEP   86, STRESS PERIOD   3
  ------------------------------------------------------------------------------

     CUMULATIVE VOLUMES      L**3       RATES FOR THIS TIME STEP      L**3/T
     ------------------                 ------------------------

           IN:                                      IN:
           ---                                      ---
             STORAGE =       1.0477E-08               STORAGE =           0.0000
       CONSTANT HEAD =           0.0000         CONSTANT HEAD =           0.0000
               WELLS =           0.0000                 WELLS =           0.0000
     HEAD DEP BOUNDS =      124600.3828       HEAD DEP BOUNDS =         666.3123

            TOTAL IN =      124600.3828              TOTAL IN =         666.3123

          OUT:                                     OUT:
          ----                                     ----
             STORAGE =       5.2387E-08               STORAGE =           0.0000
       CONSTANT HEAD =           0.0000         CONSTANT HEAD =           0.0000
               WELLS =           0.0000                 WELLS =           0.0000
     HEAD DEP BOUNDS =      124590.3047       HEAD DEP BOUNDS =         666.2595

           TOTAL OUT =      124590.3047             TOTAL OUT =         666.2595

            IN - OUT =          10.0781              IN - OUT =       5.2795E-02

 PERCENT DISCREPANCY =           0.01     PERCENT DISCREPANCY =           0.01






         TIME SUMMARY AT END OF TIME STEP   86 IN STRESS PERIOD    3
                    SECONDS     MINUTES      HOURS       DAYS        YEARS
                    -----------------------------------------------------------
   TIME STEP LENGTH  86400.      1440.0      24.000      1.0000     2.73785E-03
 STRESS PERIOD TIME 7.43040E+06 1.23840E+05  2064.0      86.000     0.23546    
         TOTAL TIME 1.61568E+07 2.69280E+05  4488.0      187.00     0.51198    
1
 
 SOLVING FOR HEAD 

 OUTPUT CONTROL FOR STRESS PERIOD    3   TIME STEP   87
    SAVE HEAD FOR ALL LAYERS
    SAVE DRAWDOWN FOR ALL LAYERS
    SAVE BUDGET
    PRINT HEAD FOR ALL LAYERS
    PRINT BUDGET
 UBDSV1 SAVING "         STORAGE" ON UNIT  53 AT TIME STEP 87, STRESS PERIOD   3
 UBDSV2 SAVING "   CONSTANT HEAD" ON UNIT  53 AT TIME STEP 87, STRESS PERIOD   3
 UBDSV1 SAVING "FLOW RIGHT FACE " ON UNIT  53 AT TIME STEP 87, STRESS PERIOD   3
 UBDSV1 SAVING "FLOW FRONT FACE " ON UNIT  53 AT TIME STEP 87, STRESS PERIOD   3
 UBDSV1 SAVING "FLOW LOWER FACE " ON UNIT  53 AT TIME STEP 87, STRESS PERIOD   3
1
              HEAD IN LAYER   1 AT END OF TIME STEP  87 IN STRESS PERIOD    3
  ---------------------------------------------------------------------------

            1           2           3           4           5           6           7           8           9          10
 ........................................................................................................................
   1    9.997       8.887       7.776       6.666       5.555       4.445       3.335       2.224       1.114      3.3313E-03
   2    9.997       8.887       7.776       6.666       5.555       4.445       3.335       2.224       1.114      3.3313E-03
   3    9.997       8.887       7.776       6.666       5.555       4.445       3.335       2.224       1.114      3.3313E-03
   4    9.997       8.887       7.776       6.666       5.555       4.445       3.335       2.224       1.114      3.3313E-03
   5    9.997       8.887       7.776       6.666       5.555       4.445       3.335       2.224       1.114      3.3313E-03
   6    9.997       8.887       7.776       6.666       5.555       4.445       3.335       2.224       1.114      3.3313E-03
   7    9.997       8.887       7.776       6.666       5.555       4.445       3.335       2.224       1.114      3.3313E-03
   8    9.997       8.887       7.776       6.666       5.555       4.445       3.335       2.224       1.114      3.3313E-03
   9    9.997       8.887       7.776       6.666       5.555       4.445       3.335       2.224       1.114      3.3313E-03
  10    9.997       8.887       7.776       6.666       5.555       4.445       3.335       2.224       1.114      3.3313E-03
1
              HEAD IN LAYER   2 AT END OF TIME STEP  87 IN STRESS PERIOD    3
  ---------------------------------------------------------------------------

            1           2           3           4           5           6           7           8           9          10
 ........................................................................................................................
   1    9.997       8.887       7.776       6.666       5.555       4.445       3.335       2.224       1.114      3.3313E-03
   2    9.997       8.887       7.776       6.666       5.555       4.445       3.335       2.224       1.114      3.3313E-03
   3    9.997       8.887       7.776       6.666       5.555       4.445       3.335       2.224       1.114      3.3313E-03
   4    9.997       8.887       7.776       6.666       5.555       4.445       3.335       2.224       1.114      3.3313E-03
   5    9.997       8.887       7.776       6.666       5.555       4.445       3.335       2.224       1.114      3.3313E-03
   6    9.997       8.887       7.776       6.666       5.555       4.445       3.335       2.224       1.114      3.3313E-03
   7    9.997       8.887       7.776       6.666       5.555       4.445       3.335       2.224       1.114      3.3313E-03
   8    9.997       8.887       7.776       6.666       5.555       4.445       3.335       2.224       1.114      3.3313E-03
   9    9.997       8.887       7.776       6.666       5.555       4.445       3.335       2.224       1.114      3.3313E-03
  10    9.997       8.887       7.776       6.666       5.555       4.445       3.335       2.224       1.114      3.3313E-03
1
              HEAD IN LAYER   3 AT END OF TIME STEP  87 IN STRESS PERIOD    3
  ---------------------------------------------------------------------------

            1           2           3           4           5           6           7           8           9          10
 ........................................................................................................................
   1    9.997       8.887       7.776       6.666       5.555       4.445       3.335       2.224       1.114      3.3313E-03
   2    9.997       8.887       7.776       6.666       5.555       4.445       3.335       2.224       1.114      3.3313E-03
   3    9.997       8.887       7.776       6.666       5.555       4.445       3.335       2.224       1.114      3.3313E-03
   4    9.997       8.887       7.776       6.666       5.555       4.445       3.335       2.224       1.114      3.3313E-03
   5    9.997       8.887       7.776       6.666       5.555       4.445       3.335       2.224       1.114      3.3313E-03
   6    9.997       8.887       7.776       6.666       5.555       4.445       3.335       2.224       1.114      3.3313E-03
   7    9.997       8.887       7.776       6.666       5.555       4.445       3.335       2.224       1.114      3.3313E-03
   8    9.997       8.887       7.776       6.666       5.555       4.445       3.335       2.224       1.114      3.3313E-03
   9    9.997       8.887       7.776       6.666       5.555       4.445       3.335       2.224       1.114      3.3313E-03
  10    9.997       8.887       7.776       6.666       5.555       4.445       3.335       2.224       1.114      3.3313E-03
1
              HEAD IN LAYER   4 AT END OF TIME STEP  87 IN STRESS PERIOD    3
  ---------------------------------------------------------------------------

            1           2           3           4           5           6           7           8           9          10
 ........................................................................................................................
   1    9.997       8.887       7.776       6.666       5.555       4.445       3.335       2.224       1.114      3.3313E-03
   2    9.997       8.887       7.776       6.666       5.555       4.445       3.335       2.224       1.114      3.3313E-03
   3    9.997       8.887       7.776       6.666       5.555       4.445       3.335       2.224       1.114      3.3313E-03
   4    9.997       8.887       7.776       6.666       5.555       4.445       3.335       2.224       1.114      3.3313E-03
   5    9.997       8.887       7.776       6.666       5.555       4.445       3.335       2.224       1.114      3.3313E-03
   6    9.997       8.887       7.776       6.666       5.555       4.445       3.335       2.224       1.114      3.3313E-03
   7    9.997       8.887       7.776       6.666       5.555       4.445       3.335       2.224       1.114      3.3313E-03
   8    9.997       8.887       7.776       6.666       5.555       4.445       3.335       2.224       1.114      3.3313E-03
   9    9.997       8.887       7.776       6.666       5.555       4.445       3.335       2.224       1.114      3.3313E-03
  10    9.997       8.887       7.776       6.666       5.555       4.445       3.335       2.224       1.114      3.3313E-03

 HEAD WILL BE SAVED ON UNIT   51 AT END OF TIME STEP   87, STRESS PERIOD    3

 DRAWDOWN WILL BE SAVED ON UNIT   52 AT END OF TIME STEP   87, STRESS PERIOD    3
1
  VOLUMETRIC BUDGET FOR ENTIRE MODEL AT END OF TIME STEP   87, STRESS PERIOD   3
  ------------------------------------------------------------------------------

     CUMULATIVE VOLUMES      L**3       RATES FOR THIS TIME STEP      L**3/T
     ------------------                 ------------------------

           IN:                                      IN:
           ---                                      ---
             STORAGE =       1.0477E-08               STORAGE =           0.0000
       CONSTANT HEAD =           0.0000         CONSTANT HEAD =           0.0000
               WELLS =           0.0000                 WELLS =           0.0000
     HEAD DEP BOUNDS =      125266.6953       HEAD DEP BOUNDS =         666.3123

            TOTAL IN =      125266.6953              TOTAL IN =         666.3123

          OUT:                                     OUT:
          ----                                     ----
             STORAGE =       5.2387E-08               STORAGE =           0.0000
       CONSTANT HEAD =           0.0000         CONSTANT HEAD =           0.0000
               WELLS =           0.0000                 WELLS =           0.0000
     HEAD DEP BOUNDS =      125256.5625       HEAD DEP BOUNDS =         666.2595

           TOTAL OUT =      125256.5625             TOTAL OUT =         666.2595

            IN - OUT =          10.1328              IN - OUT =       5.2795E-02

 PERCENT DISCREPANCY =           0.01     PERCENT DISCREPANCY =           0.01






         TIME SUMMARY AT END OF TIME STEP   87 IN STRESS PERIOD    3
                    SECONDS     MINUTES      HOURS       DAYS        YEARS
                    -----------------------------------------------------------
   TIME STEP LENGTH  86400.      1440.0      24.000      1.0000     2.73785E-03
 STRESS PERIOD TIME 7.51680E+06 1.25280E+05  2088.0      87.000     0.23819    
         TOTAL TIME 1.62432E+07 2.70720E+05  4512.0      188.00     0.51472    
1
 
 SOLVING FOR HEAD 

 OUTPUT CONTROL FOR STRESS PERIOD    3   TIME STEP   88
    SAVE HEAD FOR ALL LAYERS
    SAVE DRAWDOWN FOR ALL LAYERS
    SAVE BUDGET
    PRINT HEAD FOR ALL LAYERS
    PRINT BUDGET
 UBDSV1 SAVING "         STORAGE" ON UNIT  53 AT TIME STEP 88, STRESS PERIOD   3
 UBDSV2 SAVING "   CONSTANT HEAD" ON UNIT  53 AT TIME STEP 88, STRESS PERIOD   3
 UBDSV1 SAVING "FLOW RIGHT FACE " ON UNIT  53 AT TIME STEP 88, STRESS PERIOD   3
 UBDSV1 SAVING "FLOW FRONT FACE " ON UNIT  53 AT TIME STEP 88, STRESS PERIOD   3
 UBDSV1 SAVING "FLOW LOWER FACE " ON UNIT  53 AT TIME STEP 88, STRESS PERIOD   3
1
              HEAD IN LAYER   1 AT END OF TIME STEP  88 IN STRESS PERIOD    3
  ---------------------------------------------------------------------------

            1           2           3           4           5           6           7           8           9          10
 ........................................................................................................................
   1    9.997       8.887       7.776       6.666       5.555       4.445       3.335       2.224       1.114      3.3313E-03
   2    9.997       8.887       7.776       6.666       5.555       4.445       3.335       2.224       1.114      3.3313E-03
   3    9.997       8.887       7.776       6.666       5.555       4.445       3.335       2.224       1.114      3.3313E-03
   4    9.997       8.887       7.776       6.666       5.555       4.445       3.335       2.224       1.114      3.3313E-03
   5    9.997       8.887       7.776       6.666       5.555       4.445       3.335       2.224       1.114      3.3313E-03
   6    9.997       8.887       7.776       6.666       5.555       4.445       3.335       2.224       1.114      3.3313E-03
   7    9.997       8.887       7.776       6.666       5.555       4.445       3.335       2.224       1.114      3.3313E-03
   8    9.997       8.887       7.776       6.666       5.555       4.445       3.335       2.224       1.114      3.3313E-03
   9    9.997       8.887       7.776       6.666       5.555       4.445       3.335       2.224       1.114      3.3313E-03
  10    9.997       8.887       7.776       6.666       5.555       4.445       3.335       2.224       1.114      3.3313E-03
1
              HEAD IN LAYER   2 AT END OF TIME STEP  88 IN STRESS PERIOD    3
  ---------------------------------------------------------------------------

            1           2           3           4           5           6           7           8           9          10
 ........................................................................................................................
   1    9.997       8.887       7.776       6.666       5.555       4.445       3.335       2.224       1.114      3.3313E-03
   2    9.997       8.887       7.776       6.666       5.555       4.445       3.335       2.224       1.114      3.3313E-03
   3    9.997       8.887       7.776       6.666       5.555       4.445       3.335       2.224       1.114      3.3313E-03
   4    9.997       8.887       7.776       6.666       5.555       4.445       3.335       2.224       1.114      3.3313E-03
   5    9.997       8.887       7.776       6.666       5.555       4.445       3.335       2.224       1.114      3.3313E-03
   6    9.997       8.887       7.776       6.666       5.555       4.445       3.335       2.224       1.114      3.3313E-03
   7    9.997       8.887       7.776       6.666       5.555       4.445       3.335       2.224       1.114      3.3313E-03
   8    9.997       8.887       7.776       6.666       5.555       4.445       3.335       2.224       1.114      3.3313E-03
   9    9.997       8.887       7.776       6.666       5.555       4.445       3.335       2.224       1.114      3.3313E-03
  10    9.997       8.887       7.776       6.666       5.555       4.445       3.335       2.224       1.114      3.3313E-03
1
              HEAD IN LAYER   3 AT END OF TIME STEP  88 IN STRESS PERIOD    3
  ---------------------------------------------------------------------------

            1           2           3           4           5           6           7           8           9          10
 ........................................................................................................................
   1    9.997       8.887       7.776       6.666       5.555       4.445       3.335       2.224       1.114      3.3313E-03
   2    9.997       8.887       7.776       6.666       5.555       4.445       3.335       2.224       1.114      3.3313E-03
   3    9.997       8.887       7.776       6.666       5.555       4.445       3.335       2.224       1.114      3.3313E-03
   4    9.997       8.887       7.776       6.666       5.555       4.445       3.335       2.224       1.114      3.3313E-03
   5    9.997       8.887       7.776       6.666       5.555       4.445       3.335       2.224       1.114      3.3313E-03
   6    9.997       8.887       7.776       6.666       5.555       4.445       3.335       2.224       1.114      3.3313E-03
   7    9.997       8.887       7.776       6.666       5.555       4.445       3.335       2.224       1.114      3.3313E-03
   8    9.997       8.887       7.776       6.666       5.555       4.445       3.335       2.224       1.114      3.3313E-03
   9    9.997       8.887       7.776       6.666       5.555       4.445       3.335       2.224       1.114      3.3313E-03
  10    9.997       8.887       7.776       6.666       5.555       4.445       3.335       2.224       1.114      3.3313E-03
1
              HEAD IN LAYER   4 AT END OF TIME STEP  88 IN STRESS PERIOD    3
  ---------------------------------------------------------------------------

            1           2           3           4           5           6           7           8           9          10
 ........................................................................................................................
   1    9.997       8.887       7.776       6.666       5.555       4.445       3.335       2.224       1.114      3.3313E-03
   2    9.997       8.887       7.776       6.666       5.555       4.445       3.335       2.224       1.114      3.3313E-03
   3    9.997       8.887       7.776       6.666       5.555       4.445       3.335       2.224       1.114      3.3313E-03
   4    9.997       8.887       7.776       6.666       5.555       4.445       3.335       2.224       1.114      3.3313E-03
   5    9.997       8.887       7.776       6.666       5.555       4.445       3.335       2.224       1.114      3.3313E-03
   6    9.997       8.887       7.776       6.666       5.555       4.445       3.335       2.224       1.114      3.3313E-03
   7    9.997       8.887       7.776       6.666       5.555       4.445       3.335       2.224       1.114      3.3313E-03
   8    9.997       8.887       7.776       6.666       5.555       4.445       3.335       2.224       1.114      3.3313E-03
   9    9.997       8.887       7.776       6.666       5.555       4.445       3.335       2.224       1.114      3.3313E-03
  10    9.997       8.887       7.776       6.666       5.555       4.445       3.335       2.224       1.114      3.3313E-03

 HEAD WILL BE SAVED ON UNIT   51 AT END OF TIME STEP   88, STRESS PERIOD    3

 DRAWDOWN WILL BE SAVED ON UNIT   52 AT END OF TIME STEP   88, STRESS PERIOD    3
1
  VOLUMETRIC BUDGET FOR ENTIRE MODEL AT END OF TIME STEP   88, STRESS PERIOD   3
  ------------------------------------------------------------------------------

     CUMULATIVE VOLUMES      L**3       RATES FOR THIS TIME STEP      L**3/T
     ------------------                 ------------------------

           IN:                                      IN:
           ---                                      ---
             STORAGE =       1.0477E-08               STORAGE =           0.0000
       CONSTANT HEAD =           0.0000         CONSTANT HEAD =           0.0000
               WELLS =           0.0000                 WELLS =           0.0000
     HEAD DEP BOUNDS =      125933.0078       HEAD DEP BOUNDS =         666.3123

            TOTAL IN =      125933.0078              TOTAL IN =         666.3123

          OUT:                                     OUT:
          ----                                     ----
             STORAGE =       5.2387E-08               STORAGE =           0.0000
       CONSTANT HEAD =           0.0000         CONSTANT HEAD =           0.0000
               WELLS =           0.0000                 WELLS =           0.0000
     HEAD DEP BOUNDS =      125922.8203       HEAD DEP BOUNDS =         666.2595

           TOTAL OUT =      125922.8203             TOTAL OUT =         666.2595

            IN - OUT =          10.1875              IN - OUT =       5.2795E-02

 PERCENT DISCREPANCY =           0.01     PERCENT DISCREPANCY =           0.01






         TIME SUMMARY AT END OF TIME STEP   88 IN STRESS PERIOD    3
                    SECONDS     MINUTES      HOURS       DAYS        YEARS
                    -----------------------------------------------------------
   TIME STEP LENGTH  86400.      1440.0      24.000      1.0000     2.73785E-03
 STRESS PERIOD TIME 7.60320E+06 1.26720E+05  2112.0      88.000     0.24093    
         TOTAL TIME 1.63296E+07 2.72160E+05  4536.0      189.00     0.51745    
1
 
 SOLVING FOR HEAD 

 OUTPUT CONTROL FOR STRESS PERIOD    3   TIME STEP   89
    SAVE HEAD FOR ALL LAYERS
    SAVE DRAWDOWN FOR ALL LAYERS
    SAVE BUDGET
    PRINT HEAD FOR ALL LAYERS
    PRINT BUDGET
 UBDSV1 SAVING "         STORAGE" ON UNIT  53 AT TIME STEP 89, STRESS PERIOD   3
 UBDSV2 SAVING "   CONSTANT HEAD" ON UNIT  53 AT TIME STEP 89, STRESS PERIOD   3
 UBDSV1 SAVING "FLOW RIGHT FACE " ON UNIT  53 AT TIME STEP 89, STRESS PERIOD   3
 UBDSV1 SAVING "FLOW FRONT FACE " ON UNIT  53 AT TIME STEP 89, STRESS PERIOD   3
 UBDSV1 SAVING "FLOW LOWER FACE " ON UNIT  53 AT TIME STEP 89, STRESS PERIOD   3
1
              HEAD IN LAYER   1 AT END OF TIME STEP  89 IN STRESS PERIOD    3
  ---------------------------------------------------------------------------

            1           2           3           4           5           6           7           8           9          10
 ........................................................................................................................
   1    9.997       8.887       7.776       6.666       5.555       4.445       3.335       2.224       1.114      3.3313E-03
   2    9.997       8.887       7.776       6.666       5.555       4.445       3.335       2.224       1.114      3.3313E-03
   3    9.997       8.887       7.776       6.666       5.555       4.445       3.335       2.224       1.114      3.3313E-03
   4    9.997       8.887       7.776       6.666       5.555       4.445       3.335       2.224       1.114      3.3313E-03
   5    9.997       8.887       7.776       6.666       5.555       4.445       3.335       2.224       1.114      3.3313E-03
   6    9.997       8.887       7.776       6.666       5.555       4.445       3.335       2.224       1.114      3.3313E-03
   7    9.997       8.887       7.776       6.666       5.555       4.445       3.335       2.224       1.114      3.3313E-03
   8    9.997       8.887       7.776       6.666       5.555       4.445       3.335       2.224       1.114      3.3313E-03
   9    9.997       8.887       7.776       6.666       5.555       4.445       3.335       2.224       1.114      3.3313E-03
  10    9.997       8.887       7.776       6.666       5.555       4.445       3.335       2.224       1.114      3.3313E-03
1
              HEAD IN LAYER   2 AT END OF TIME STEP  89 IN STRESS PERIOD    3
  ---------------------------------------------------------------------------

            1           2           3           4           5           6           7           8           9          10
 ........................................................................................................................
   1    9.997       8.887       7.776       6.666       5.555       4.445       3.335       2.224       1.114      3.3313E-03
   2    9.997       8.887       7.776       6.666       5.555       4.445       3.335       2.224       1.114      3.3313E-03
   3    9.997       8.887       7.776       6.666       5.555       4.445       3.335       2.224       1.114      3.3313E-03
   4    9.997       8.887       7.776       6.666       5.555       4.445       3.335       2.224       1.114      3.3313E-03
   5    9.997       8.887       7.776       6.666       5.555       4.445       3.335       2.224       1.114      3.3313E-03
   6    9.997       8.887       7.776       6.666       5.555       4.445       3.335       2.224       1.114      3.3313E-03
   7    9.997       8.887       7.776       6.666       5.555       4.445       3.335       2.224       1.114      3.3313E-03
   8    9.997       8.887       7.776       6.666       5.555       4.445       3.335       2.224       1.114      3.3313E-03
   9    9.997       8.887       7.776       6.666       5.555       4.445       3.335       2.224       1.114      3.3313E-03
  10    9.997       8.887       7.776       6.666       5.555       4.445       3.335       2.224       1.114      3.3313E-03
1
              HEAD IN LAYER   3 AT END OF TIME STEP  89 IN STRESS PERIOD    3
  ---------------------------------------------------------------------------

            1           2           3           4           5           6           7           8           9          10
 ........................................................................................................................
   1    9.997       8.887       7.776       6.666       5.555       4.445       3.335       2.224       1.114      3.3313E-03
   2    9.997       8.887       7.776       6.666       5.555       4.445       3.335       2.224       1.114      3.3313E-03
   3    9.997       8.887       7.776       6.666       5.555       4.445       3.335       2.224       1.114      3.3313E-03
   4    9.997       8.887       7.776       6.666       5.555       4.445       3.335       2.224       1.114      3.3313E-03
   5    9.997       8.887       7.776       6.666       5.555       4.445       3.335       2.224       1.114      3.3313E-03
   6    9.997       8.887       7.776       6.666       5.555       4.445       3.335       2.224       1.114      3.3313E-03
   7    9.997       8.887       7.776       6.666       5.555       4.445       3.335       2.224       1.114      3.3313E-03
   8    9.997       8.887       7.776       6.666       5.555       4.445       3.335       2.224       1.114      3.3313E-03
   9    9.997       8.887       7.776       6.666       5.555       4.445       3.335       2.224       1.114      3.3313E-03
  10    9.997       8.887       7.776       6.666       5.555       4.445       3.335       2.224       1.114      3.3313E-03
1
              HEAD IN LAYER   4 AT END OF TIME STEP  89 IN STRESS PERIOD    3
  ---------------------------------------------------------------------------

            1           2           3           4           5           6           7           8           9          10
 ........................................................................................................................
   1    9.997       8.887       7.776       6.666       5.555       4.445       3.335       2.224       1.114      3.3313E-03
   2    9.997       8.887       7.776       6.666       5.555       4.445       3.335       2.224       1.114      3.3313E-03
   3    9.997       8.887       7.776       6.666       5.555       4.445       3.335       2.224       1.114      3.3313E-03
   4    9.997       8.887       7.776       6.666       5.555       4.445       3.335       2.224       1.114      3.3313E-03
   5    9.997       8.887       7.776       6.666       5.555       4.445       3.335       2.224       1.114      3.3313E-03
   6    9.997       8.887       7.776       6.666       5.555       4.445       3.335       2.224       1.114      3.3313E-03
   7    9.997       8.887       7.776       6.666       5.555       4.445       3.335       2.224       1.114      3.3313E-03
   8    9.997       8.887       7.776       6.666       5.555       4.445       3.335       2.224       1.114      3.3313E-03
   9    9.997       8.887       7.776       6.666       5.555       4.445       3.335       2.224       1.114      3.3313E-03
  10    9.997       8.887       7.776       6.666       5.555       4.445       3.335       2.224       1.114      3.3313E-03

 HEAD WILL BE SAVED ON UNIT   51 AT END OF TIME STEP   89, STRESS PERIOD    3

 DRAWDOWN WILL BE SAVED ON UNIT   52 AT END OF TIME STEP   89, STRESS PERIOD    3
1
  VOLUMETRIC BUDGET FOR ENTIRE MODEL AT END OF TIME STEP   89, STRESS PERIOD   3
  ------------------------------------------------------------------------------

     CUMULATIVE VOLUMES      L**3       RATES FOR THIS TIME STEP      L**3/T
     ------------------                 ------------------------

           IN:                                      IN:
           ---                                      ---
             STORAGE =       1.0477E-08               STORAGE =           0.0000
       CONSTANT HEAD =           0.0000         CONSTANT HEAD =           0.0000
               WELLS =           0.0000                 WELLS =           0.0000
     HEAD DEP BOUNDS =      126599.3203       HEAD DEP BOUNDS =         666.3123

            TOTAL IN =      126599.3203              TOTAL IN =         666.3123

          OUT:                                     OUT:
          ----                                     ----
             STORAGE =       5.2387E-08               STORAGE =           0.0000
       CONSTANT HEAD =           0.0000         CONSTANT HEAD =           0.0000
               WELLS =           0.0000                 WELLS =           0.0000
     HEAD DEP BOUNDS =      126589.0781       HEAD DEP BOUNDS =         666.2595

           TOTAL OUT =      126589.0781             TOTAL OUT =         666.2595

            IN - OUT =          10.2422              IN - OUT =       5.2795E-02

 PERCENT DISCREPANCY =           0.01     PERCENT DISCREPANCY =           0.01






         TIME SUMMARY AT END OF TIME STEP   89 IN STRESS PERIOD    3
                    SECONDS     MINUTES      HOURS       DAYS        YEARS
                    -----------------------------------------------------------
   TIME STEP LENGTH  86400.      1440.0      24.000      1.0000     2.73785E-03
 STRESS PERIOD TIME 7.68960E+06 1.28160E+05  2136.0      89.000     0.24367    
         TOTAL TIME 1.64160E+07 2.73600E+05  4560.0      190.00     0.52019    
1
 
 SOLVING FOR HEAD 

 OUTPUT CONTROL FOR STRESS PERIOD    3   TIME STEP   90
    SAVE HEAD FOR ALL LAYERS
    SAVE DRAWDOWN FOR ALL LAYERS
    SAVE BUDGET
    PRINT HEAD FOR ALL LAYERS
    PRINT BUDGET
 UBDSV1 SAVING "         STORAGE" ON UNIT  53 AT TIME STEP 90, STRESS PERIOD   3
 UBDSV2 SAVING "   CONSTANT HEAD" ON UNIT  53 AT TIME STEP 90, STRESS PERIOD   3
 UBDSV1 SAVING "FLOW RIGHT FACE " ON UNIT  53 AT TIME STEP 90, STRESS PERIOD   3
 UBDSV1 SAVING "FLOW FRONT FACE " ON UNIT  53 AT TIME STEP 90, STRESS PERIOD   3
 UBDSV1 SAVING "FLOW LOWER FACE " ON UNIT  53 AT TIME STEP 90, STRESS PERIOD   3
1
              HEAD IN LAYER   1 AT END OF TIME STEP  90 IN STRESS PERIOD    3
  ---------------------------------------------------------------------------

            1           2           3           4           5           6           7           8           9          10
 ........................................................................................................................
   1    9.997       8.887       7.776       6.666       5.555       4.445       3.335       2.224       1.114      3.3313E-03
   2    9.997       8.887       7.776       6.666       5.555       4.445       3.335       2.224       1.114      3.3313E-03
   3    9.997       8.887       7.776       6.666       5.555       4.445       3.335       2.224       1.114      3.3313E-03
   4    9.997       8.887       7.776       6.666       5.555       4.445       3.335       2.224       1.114      3.3313E-03
   5    9.997       8.887       7.776       6.666       5.555       4.445       3.335       2.224       1.114      3.3313E-03
   6    9.997       8.887       7.776       6.666       5.555       4.445       3.335       2.224       1.114      3.3313E-03
   7    9.997       8.887       7.776       6.666       5.555       4.445       3.335       2.224       1.114      3.3313E-03
   8    9.997       8.887       7.776       6.666       5.555       4.445       3.335       2.224       1.114      3.3313E-03
   9    9.997       8.887       7.776       6.666       5.555       4.445       3.335       2.224       1.114      3.3313E-03
  10    9.997       8.887       7.776       6.666       5.555       4.445       3.335       2.224       1.114      3.3313E-03
1
              HEAD IN LAYER   2 AT END OF TIME STEP  90 IN STRESS PERIOD    3
  ---------------------------------------------------------------------------

            1           2           3           4           5           6           7           8           9          10
 ........................................................................................................................
   1    9.997       8.887       7.776       6.666       5.555       4.445       3.335       2.224       1.114      3.3313E-03
   2    9.997       8.887       7.776       6.666       5.555       4.445       3.335       2.224       1.114      3.3313E-03
   3    9.997       8.887       7.776       6.666       5.555       4.445       3.335       2.224       1.114      3.3313E-03
   4    9.997       8.887       7.776       6.666       5.555       4.445       3.335       2.224       1.114      3.3313E-03
   5    9.997       8.887       7.776       6.666       5.555       4.445       3.335       2.224       1.114      3.3313E-03
   6    9.997       8.887       7.776       6.666       5.555       4.445       3.335       2.224       1.114      3.3313E-03
   7    9.997       8.887       7.776       6.666       5.555       4.445       3.335       2.224       1.114      3.3313E-03
   8    9.997       8.887       7.776       6.666       5.555       4.445       3.335       2.224       1.114      3.3313E-03
   9    9.997       8.887       7.776       6.666       5.555       4.445       3.335       2.224       1.114      3.3313E-03
  10    9.997       8.887       7.776       6.666       5.555       4.445       3.335       2.224       1.114      3.3313E-03
1
              HEAD IN LAYER   3 AT END OF TIME STEP  90 IN STRESS PERIOD    3
  ---------------------------------------------------------------------------

            1           2           3           4           5           6           7           8           9          10
 ........................................................................................................................
   1    9.997       8.887       7.776       6.666       5.555       4.445       3.335       2.224       1.114      3.3313E-03
   2    9.997       8.887       7.776       6.666       5.555       4.445       3.335       2.224       1.114      3.3313E-03
   3    9.997       8.887       7.776       6.666       5.555       4.445       3.335       2.224       1.114      3.3313E-03
   4    9.997       8.887       7.776       6.666       5.555       4.445       3.335       2.224       1.114      3.3313E-03
   5    9.997       8.887       7.776       6.666       5.555       4.445       3.335       2.224       1.114      3.3313E-03
   6    9.997       8.887       7.776       6.666       5.555       4.445       3.335       2.224       1.114      3.3313E-03
   7    9.997       8.887       7.776       6.666       5.555       4.445       3.335       2.224       1.114      3.3313E-03
   8    9.997       8.887       7.776       6.666       5.555       4.445       3.335       2.224       1.114      3.3313E-03
   9    9.997       8.887       7.776       6.666       5.555       4.445       3.335       2.224       1.114      3.3313E-03
  10    9.997       8.887       7.776       6.666       5.555       4.445       3.335       2.224       1.114      3.3313E-03
1
              HEAD IN LAYER   4 AT END OF TIME STEP  90 IN STRESS PERIOD    3
  ---------------------------------------------------------------------------

            1           2           3           4           5           6           7           8           9          10
 ........................................................................................................................
   1    9.997       8.887       7.776       6.666       5.555       4.445       3.335       2.224       1.114      3.3313E-03
   2    9.997       8.887       7.776       6.666       5.555       4.445       3.335       2.224       1.114      3.3313E-03
   3    9.997       8.887       7.776       6.666       5.555       4.445       3.335       2.224       1.114      3.3313E-03
   4    9.997       8.887       7.776       6.666       5.555       4.445       3.335       2.224       1.114      3.3313E-03
   5    9.997       8.887       7.776       6.666       5.555       4.445       3.335       2.224       1.114      3.3313E-03
   6    9.997       8.887       7.776       6.666       5.555       4.445       3.335       2.224       1.114      3.3313E-03
   7    9.997       8.887       7.776       6.666       5.555       4.445       3.335       2.224       1.114      3.3313E-03
   8    9.997       8.887       7.776       6.666       5.555       4.445       3.335       2.224       1.114      3.3313E-03
   9    9.997       8.887       7.776       6.666       5.555       4.445       3.335       2.224       1.114      3.3313E-03
  10    9.997       8.887       7.776       6.666       5.555       4.445       3.335       2.224       1.114      3.3313E-03

 HEAD WILL BE SAVED ON UNIT   51 AT END OF TIME STEP   90, STRESS PERIOD    3

 DRAWDOWN WILL BE SAVED ON UNIT   52 AT END OF TIME STEP   90, STRESS PERIOD    3
1
  VOLUMETRIC BUDGET FOR ENTIRE MODEL AT END OF TIME STEP   90, STRESS PERIOD   3
  ------------------------------------------------------------------------------

     CUMULATIVE VOLUMES      L**3       RATES FOR THIS TIME STEP      L**3/T
     ------------------                 ------------------------

           IN:                                      IN:
           ---                                      ---
             STORAGE =       1.0477E-08               STORAGE =           0.0000
       CONSTANT HEAD =           0.0000         CONSTANT HEAD =           0.0000
               WELLS =           0.0000                 WELLS =           0.0000
     HEAD DEP BOUNDS =      127265.6328       HEAD DEP BOUNDS =         666.3123

            TOTAL IN =      127265.6328              TOTAL IN =         666.3123

          OUT:                                     OUT:
          ----                                     ----
             STORAGE =       5.2387E-08               STORAGE =           0.0000
       CONSTANT HEAD =           0.0000         CONSTANT HEAD =           0.0000
               WELLS =           0.0000                 WELLS =           0.0000
     HEAD DEP BOUNDS =      127255.3359       HEAD DEP BOUNDS =         666.2595

           TOTAL OUT =      127255.3359             TOTAL OUT =         666.2595

            IN - OUT =          10.2969              IN - OUT =       5.2795E-02

 PERCENT DISCREPANCY =           0.01     PERCENT DISCREPANCY =           0.01






         TIME SUMMARY AT END OF TIME STEP   90 IN STRESS PERIOD    3
                    SECONDS     MINUTES      HOURS       DAYS        YEARS
                    -----------------------------------------------------------
   TIME STEP LENGTH  86400.      1440.0      24.000      1.0000     2.73785E-03
 STRESS PERIOD TIME 7.77600E+06 1.29600E+05  2160.0      90.000     0.24641    
         TOTAL TIME 1.65024E+07 2.75040E+05  4584.0      191.00     0.52293    
1
 
 SOLVING FOR HEAD 

 OUTPUT CONTROL FOR STRESS PERIOD    3   TIME STEP   91
    SAVE HEAD FOR ALL LAYERS
    SAVE DRAWDOWN FOR ALL LAYERS
    SAVE BUDGET
    PRINT HEAD FOR ALL LAYERS
    PRINT BUDGET
 UBDSV1 SAVING "         STORAGE" ON UNIT  53 AT TIME STEP 91, STRESS PERIOD   3
 UBDSV2 SAVING "   CONSTANT HEAD" ON UNIT  53 AT TIME STEP 91, STRESS PERIOD   3
 UBDSV1 SAVING "FLOW RIGHT FACE " ON UNIT  53 AT TIME STEP 91, STRESS PERIOD   3
 UBDSV1 SAVING "FLOW FRONT FACE " ON UNIT  53 AT TIME STEP 91, STRESS PERIOD   3
 UBDSV1 SAVING "FLOW LOWER FACE " ON UNIT  53 AT TIME STEP 91, STRESS PERIOD   3
1
              HEAD IN LAYER   1 AT END OF TIME STEP  91 IN STRESS PERIOD    3
  ---------------------------------------------------------------------------

            1           2           3           4           5           6           7           8           9          10
 ........................................................................................................................
   1    9.997       8.887       7.776       6.666       5.555       4.445       3.335       2.224       1.114      3.3313E-03
   2    9.997       8.887       7.776       6.666       5.555       4.445       3.335       2.224       1.114      3.3313E-03
   3    9.997       8.887       7.776       6.666       5.555       4.445       3.335       2.224       1.114      3.3313E-03
   4    9.997       8.887       7.776       6.666       5.555       4.445       3.335       2.224       1.114      3.3313E-03
   5    9.997       8.887       7.776       6.666       5.555       4.445       3.335       2.224       1.114      3.3313E-03
   6    9.997       8.887       7.776       6.666       5.555       4.445       3.335       2.224       1.114      3.3313E-03
   7    9.997       8.887       7.776       6.666       5.555       4.445       3.335       2.224       1.114      3.3313E-03
   8    9.997       8.887       7.776       6.666       5.555       4.445       3.335       2.224       1.114      3.3313E-03
   9    9.997       8.887       7.776       6.666       5.555       4.445       3.335       2.224       1.114      3.3313E-03
  10    9.997       8.887       7.776       6.666       5.555       4.445       3.335       2.224       1.114      3.3313E-03
1
              HEAD IN LAYER   2 AT END OF TIME STEP  91 IN STRESS PERIOD    3
  ---------------------------------------------------------------------------

            1           2           3           4           5           6           7           8           9          10
 ........................................................................................................................
   1    9.997       8.887       7.776       6.666       5.555       4.445       3.335       2.224       1.114      3.3313E-03
   2    9.997       8.887       7.776       6.666       5.555       4.445       3.335       2.224       1.114      3.3313E-03
   3    9.997       8.887       7.776       6.666       5.555       4.445       3.335       2.224       1.114      3.3313E-03
   4    9.997       8.887       7.776       6.666       5.555       4.445       3.335       2.224       1.114      3.3313E-03
   5    9.997       8.887       7.776       6.666       5.555       4.445       3.335       2.224       1.114      3.3313E-03
   6    9.997       8.887       7.776       6.666       5.555       4.445       3.335       2.224       1.114      3.3313E-03
   7    9.997       8.887       7.776       6.666       5.555       4.445       3.335       2.224       1.114      3.3313E-03
   8    9.997       8.887       7.776       6.666       5.555       4.445       3.335       2.224       1.114      3.3313E-03
   9    9.997       8.887       7.776       6.666       5.555       4.445       3.335       2.224       1.114      3.3313E-03
  10    9.997       8.887       7.776       6.666       5.555       4.445       3.335       2.224       1.114      3.3313E-03
1
              HEAD IN LAYER   3 AT END OF TIME STEP  91 IN STRESS PERIOD    3
  ---------------------------------------------------------------------------

            1           2           3           4           5           6           7           8           9          10
 ........................................................................................................................
   1    9.997       8.887       7.776       6.666       5.555       4.445       3.335       2.224       1.114      3.3313E-03
   2    9.997       8.887       7.776       6.666       5.555       4.445       3.335       2.224       1.114      3.3313E-03
   3    9.997       8.887       7.776       6.666       5.555       4.445       3.335       2.224       1.114      3.3313E-03
   4    9.997       8.887       7.776       6.666       5.555       4.445       3.335       2.224       1.114      3.3313E-03
   5    9.997       8.887       7.776       6.666       5.555       4.445       3.335       2.224       1.114      3.3313E-03
   6    9.997       8.887       7.776       6.666       5.555       4.445       3.335       2.224       1.114      3.3313E-03
   7    9.997       8.887       7.776       6.666       5.555       4.445       3.335       2.224       1.114      3.3313E-03
   8    9.997       8.887       7.776       6.666       5.555       4.445       3.335       2.224       1.114      3.3313E-03
   9    9.997       8.887       7.776       6.666       5.555       4.445       3.335       2.224       1.114      3.3313E-03
  10    9.997       8.887       7.776       6.666       5.555       4.445       3.335       2.224       1.114      3.3313E-03
1
              HEAD IN LAYER   4 AT END OF TIME STEP  91 IN STRESS PERIOD    3
  ---------------------------------------------------------------------------

            1           2           3           4           5           6           7           8           9          10
 ........................................................................................................................
   1    9.997       8.887       7.776       6.666       5.555       4.445       3.335       2.224       1.114      3.3313E-03
   2    9.997       8.887       7.776       6.666       5.555       4.445       3.335       2.224       1.114      3.3313E-03
   3    9.997       8.887       7.776       6.666       5.555       4.445       3.335       2.224       1.114      3.3313E-03
   4    9.997       8.887       7.776       6.666       5.555       4.445       3.335       2.224       1.114      3.3313E-03
   5    9.997       8.887       7.776       6.666       5.555       4.445       3.335       2.224       1.114      3.3313E-03
   6    9.997       8.887       7.776       6.666       5.555       4.445       3.335       2.224       1.114      3.3313E-03
   7    9.997       8.887       7.776       6.666       5.555       4.445       3.335       2.224       1.114      3.3313E-03
   8    9.997       8.887       7.776       6.666       5.555       4.445       3.335       2.224       1.114      3.3313E-03
   9    9.997       8.887       7.776       6.666       5.555       4.445       3.335       2.224       1.114      3.3313E-03
  10    9.997       8.887       7.776       6.666       5.555       4.445       3.335       2.224       1.114      3.3313E-03

 HEAD WILL BE SAVED ON UNIT   51 AT END OF TIME STEP   91, STRESS PERIOD    3

 DRAWDOWN WILL BE SAVED ON UNIT   52 AT END OF TIME STEP   91, STRESS PERIOD    3
1
  VOLUMETRIC BUDGET FOR ENTIRE MODEL AT END OF TIME STEP   91, STRESS PERIOD   3
  ------------------------------------------------------------------------------

     CUMULATIVE VOLUMES      L**3       RATES FOR THIS TIME STEP      L**3/T
     ------------------                 ------------------------

           IN:                                      IN:
           ---                                      ---
             STORAGE =       1.0477E-08               STORAGE =           0.0000
       CONSTANT HEAD =           0.0000         CONSTANT HEAD =           0.0000
               WELLS =           0.0000                 WELLS =           0.0000
     HEAD DEP BOUNDS =      127931.9453       HEAD DEP BOUNDS =         666.3123

            TOTAL IN =      127931.9453              TOTAL IN =         666.3123

          OUT:                                     OUT:
          ----                                     ----
             STORAGE =       5.2387E-08               STORAGE =           0.0000
       CONSTANT HEAD =           0.0000         CONSTANT HEAD =           0.0000
               WELLS =           0.0000                 WELLS =           0.0000
     HEAD DEP BOUNDS =      127921.5938       HEAD DEP BOUNDS =         666.2595

           TOTAL OUT =      127921.5938             TOTAL OUT =         666.2595

            IN - OUT =          10.3516              IN - OUT =       5.2795E-02

 PERCENT DISCREPANCY =           0.01     PERCENT DISCREPANCY =           0.01






         TIME SUMMARY AT END OF TIME STEP   91 IN STRESS PERIOD    3
                    SECONDS     MINUTES      HOURS       DAYS        YEARS
                    -----------------------------------------------------------
   TIME STEP LENGTH  86400.      1440.0      24.000      1.0000     2.73785E-03
 STRESS PERIOD TIME 7.86240E+06 1.31040E+05  2184.0      91.000     0.24914    
         TOTAL TIME 1.65888E+07 2.76480E+05  4608.0      192.00     0.52567    
1
 
 SOLVING FOR HEAD 

 OUTPUT CONTROL FOR STRESS PERIOD    3   TIME STEP   92
    SAVE HEAD FOR ALL LAYERS
    SAVE DRAWDOWN FOR ALL LAYERS
    SAVE BUDGET
    PRINT HEAD FOR ALL LAYERS
    PRINT BUDGET
 UBDSV1 SAVING "         STORAGE" ON UNIT  53 AT TIME STEP 92, STRESS PERIOD   3
 UBDSV2 SAVING "   CONSTANT HEAD" ON UNIT  53 AT TIME STEP 92, STRESS PERIOD   3
 UBDSV1 SAVING "FLOW RIGHT FACE " ON UNIT  53 AT TIME STEP 92, STRESS PERIOD   3
 UBDSV1 SAVING "FLOW FRONT FACE " ON UNIT  53 AT TIME STEP 92, STRESS PERIOD   3
 UBDSV1 SAVING "FLOW LOWER FACE " ON UNIT  53 AT TIME STEP 92, STRESS PERIOD   3
1
              HEAD IN LAYER   1 AT END OF TIME STEP  92 IN STRESS PERIOD    3
  ---------------------------------------------------------------------------

            1           2           3           4           5           6           7           8           9          10
 ........................................................................................................................
   1    9.997       8.887       7.776       6.666       5.555       4.445       3.335       2.224       1.114      3.3313E-03
   2    9.997       8.887       7.776       6.666       5.555       4.445       3.335       2.224       1.114      3.3313E-03
   3    9.997       8.887       7.776       6.666       5.555       4.445       3.335       2.224       1.114      3.3313E-03
   4    9.997       8.887       7.776       6.666       5.555       4.445       3.335       2.224       1.114      3.3313E-03
   5    9.997       8.887       7.776       6.666       5.555       4.445       3.335       2.224       1.114      3.3313E-03
   6    9.997       8.887       7.776       6.666       5.555       4.445       3.335       2.224       1.114      3.3313E-03
   7    9.997       8.887       7.776       6.666       5.555       4.445       3.335       2.224       1.114      3.3313E-03
   8    9.997       8.887       7.776       6.666       5.555       4.445       3.335       2.224       1.114      3.3313E-03
   9    9.997       8.887       7.776       6.666       5.555       4.445       3.335       2.224       1.114      3.3313E-03
  10    9.997       8.887       7.776       6.666       5.555       4.445       3.335       2.224       1.114      3.3313E-03
1
              HEAD IN LAYER   2 AT END OF TIME STEP  92 IN STRESS PERIOD    3
  ---------------------------------------------------------------------------

            1           2           3           4           5           6           7           8           9          10
 ........................................................................................................................
   1    9.997       8.887       7.776       6.666       5.555       4.445       3.335       2.224       1.114      3.3313E-03
   2    9.997       8.887       7.776       6.666       5.555       4.445       3.335       2.224       1.114      3.3313E-03
   3    9.997       8.887       7.776       6.666       5.555       4.445       3.335       2.224       1.114      3.3313E-03
   4    9.997       8.887       7.776       6.666       5.555       4.445       3.335       2.224       1.114      3.3313E-03
   5    9.997       8.887       7.776       6.666       5.555       4.445       3.335       2.224       1.114      3.3313E-03
   6    9.997       8.887       7.776       6.666       5.555       4.445       3.335       2.224       1.114      3.3313E-03
   7    9.997       8.887       7.776       6.666       5.555       4.445       3.335       2.224       1.114      3.3313E-03
   8    9.997       8.887       7.776       6.666       5.555       4.445       3.335       2.224       1.114      3.3313E-03
   9    9.997       8.887       7.776       6.666       5.555       4.445       3.335       2.224       1.114      3.3313E-03
  10    9.997       8.887       7.776       6.666       5.555       4.445       3.335       2.224       1.114      3.3313E-03
1
              HEAD IN LAYER   3 AT END OF TIME STEP  92 IN STRESS PERIOD    3
  ---------------------------------------------------------------------------

            1           2           3           4           5           6           7           8           9          10
 ........................................................................................................................
   1    9.997       8.887       7.776       6.666       5.555       4.445       3.335       2.224       1.114      3.3313E-03
   2    9.997       8.887       7.776       6.666       5.555       4.445       3.335       2.224       1.114      3.3313E-03
   3    9.997       8.887       7.776       6.666       5.555       4.445       3.335       2.224       1.114      3.3313E-03
   4    9.997       8.887       7.776       6.666       5.555       4.445       3.335       2.224       1.114      3.3313E-03
   5    9.997       8.887       7.776       6.666       5.555       4.445       3.335       2.224       1.114      3.3313E-03
   6    9.997       8.887       7.776       6.666       5.555       4.445       3.335       2.224       1.114      3.3313E-03
   7    9.997       8.887       7.776       6.666       5.555       4.445       3.335       2.224       1.114      3.3313E-03
   8    9.997       8.887       7.776       6.666       5.555       4.445       3.335       2.224       1.114      3.3313E-03
   9    9.997       8.887       7.776       6.666       5.555       4.445       3.335       2.224       1.114      3.3313E-03
  10    9.997       8.887       7.776       6.666       5.555       4.445       3.335       2.224       1.114      3.3313E-03
1
              HEAD IN LAYER   4 AT END OF TIME STEP  92 IN STRESS PERIOD    3
  ---------------------------------------------------------------------------

            1           2           3           4           5           6           7           8           9          10
 ........................................................................................................................
   1    9.997       8.887       7.776       6.666       5.555       4.445       3.335       2.224       1.114      3.3313E-03
   2    9.997       8.887       7.776       6.666       5.555       4.445       3.335       2.224       1.114      3.3313E-03
   3    9.997       8.887       7.776       6.666       5.555       4.445       3.335       2.224       1.114      3.3313E-03
   4    9.997       8.887       7.776       6.666       5.555       4.445       3.335       2.224       1.114      3.3313E-03
   5    9.997       8.887       7.776       6.666       5.555       4.445       3.335       2.224       1.114      3.3313E-03
   6    9.997       8.887       7.776       6.666       5.555       4.445       3.335       2.224       1.114      3.3313E-03
   7    9.997       8.887       7.776       6.666       5.555       4.445       3.335       2.224       1.114      3.3313E-03
   8    9.997       8.887       7.776       6.666       5.555       4.445       3.335       2.224       1.114      3.3313E-03
   9    9.997       8.887       7.776       6.666       5.555       4.445       3.335       2.224       1.114      3.3313E-03
  10    9.997       8.887       7.776       6.666       5.555       4.445       3.335       2.224       1.114      3.3313E-03

 HEAD WILL BE SAVED ON UNIT   51 AT END OF TIME STEP   92, STRESS PERIOD    3

 DRAWDOWN WILL BE SAVED ON UNIT   52 AT END OF TIME STEP   92, STRESS PERIOD    3
1
  VOLUMETRIC BUDGET FOR ENTIRE MODEL AT END OF TIME STEP   92, STRESS PERIOD   3
  ------------------------------------------------------------------------------

     CUMULATIVE VOLUMES      L**3       RATES FOR THIS TIME STEP      L**3/T
     ------------------                 ------------------------

           IN:                                      IN:
           ---                                      ---
             STORAGE =       1.0477E-08               STORAGE =           0.0000
       CONSTANT HEAD =           0.0000         CONSTANT HEAD =           0.0000
               WELLS =           0.0000                 WELLS =           0.0000
     HEAD DEP BOUNDS =      128598.2578       HEAD DEP BOUNDS =         666.3123

            TOTAL IN =      128598.2578              TOTAL IN =         666.3123

          OUT:                                     OUT:
          ----                                     ----
             STORAGE =       5.2387E-08               STORAGE =           0.0000
       CONSTANT HEAD =           0.0000         CONSTANT HEAD =           0.0000
               WELLS =           0.0000                 WELLS =           0.0000
     HEAD DEP BOUNDS =      128587.8516       HEAD DEP BOUNDS =         666.2595

           TOTAL OUT =      128587.8516             TOTAL OUT =         666.2595

            IN - OUT =          10.4062              IN - OUT =       5.2795E-02

 PERCENT DISCREPANCY =           0.01     PERCENT DISCREPANCY =           0.01






         TIME SUMMARY AT END OF TIME STEP   92 IN STRESS PERIOD    3
                    SECONDS     MINUTES      HOURS       DAYS        YEARS
                    -----------------------------------------------------------
   TIME STEP LENGTH  86400.      1440.0      24.000      1.0000     2.73785E-03
 STRESS PERIOD TIME 7.94880E+06 1.32480E+05  2208.0      92.000     0.25188    
         TOTAL TIME 1.66752E+07 2.77920E+05  4632.0      193.00     0.52841    
1
 
 SOLVING FOR HEAD 

 OUTPUT CONTROL FOR STRESS PERIOD    3   TIME STEP   93
    SAVE HEAD FOR ALL LAYERS
    SAVE DRAWDOWN FOR ALL LAYERS
    SAVE BUDGET
    PRINT HEAD FOR ALL LAYERS
    PRINT BUDGET
 UBDSV1 SAVING "         STORAGE" ON UNIT  53 AT TIME STEP 93, STRESS PERIOD   3
 UBDSV2 SAVING "   CONSTANT HEAD" ON UNIT  53 AT TIME STEP 93, STRESS PERIOD   3
 UBDSV1 SAVING "FLOW RIGHT FACE " ON UNIT  53 AT TIME STEP 93, STRESS PERIOD   3
 UBDSV1 SAVING "FLOW FRONT FACE " ON UNIT  53 AT TIME STEP 93, STRESS PERIOD   3
 UBDSV1 SAVING "FLOW LOWER FACE " ON UNIT  53 AT TIME STEP 93, STRESS PERIOD   3
1
              HEAD IN LAYER   1 AT END OF TIME STEP  93 IN STRESS PERIOD    3
  ---------------------------------------------------------------------------

            1           2           3           4           5           6           7           8           9          10
 ........................................................................................................................
   1    9.997       8.887       7.776       6.666       5.555       4.445       3.335       2.224       1.114      3.3313E-03
   2    9.997       8.887       7.776       6.666       5.555       4.445       3.335       2.224       1.114      3.3313E-03
   3    9.997       8.887       7.776       6.666       5.555       4.445       3.335       2.224       1.114      3.3313E-03
   4    9.997       8.887       7.776       6.666       5.555       4.445       3.335       2.224       1.114      3.3313E-03
   5    9.997       8.887       7.776       6.666       5.555       4.445       3.335       2.224       1.114      3.3313E-03
   6    9.997       8.887       7.776       6.666       5.555       4.445       3.335       2.224       1.114      3.3313E-03
   7    9.997       8.887       7.776       6.666       5.555       4.445       3.335       2.224       1.114      3.3313E-03
   8    9.997       8.887       7.776       6.666       5.555       4.445       3.335       2.224       1.114      3.3313E-03
   9    9.997       8.887       7.776       6.666       5.555       4.445       3.335       2.224       1.114      3.3313E-03
  10    9.997       8.887       7.776       6.666       5.555       4.445       3.335       2.224       1.114      3.3313E-03
1
              HEAD IN LAYER   2 AT END OF TIME STEP  93 IN STRESS PERIOD    3
  ---------------------------------------------------------------------------

            1           2           3           4           5           6           7           8           9          10
 ........................................................................................................................
   1    9.997       8.887       7.776       6.666       5.555       4.445       3.335       2.224       1.114      3.3313E-03
   2    9.997       8.887       7.776       6.666       5.555       4.445       3.335       2.224       1.114      3.3313E-03
   3    9.997       8.887       7.776       6.666       5.555       4.445       3.335       2.224       1.114      3.3313E-03
   4    9.997       8.887       7.776       6.666       5.555       4.445       3.335       2.224       1.114      3.3313E-03
   5    9.997       8.887       7.776       6.666       5.555       4.445       3.335       2.224       1.114      3.3313E-03
   6    9.997       8.887       7.776       6.666       5.555       4.445       3.335       2.224       1.114      3.3313E-03
   7    9.997       8.887       7.776       6.666       5.555       4.445       3.335       2.224       1.114      3.3313E-03
   8    9.997       8.887       7.776       6.666       5.555       4.445       3.335       2.224       1.114      3.3313E-03
   9    9.997       8.887       7.776       6.666       5.555       4.445       3.335       2.224       1.114      3.3313E-03
  10    9.997       8.887       7.776       6.666       5.555       4.445       3.335       2.224       1.114      3.3313E-03
1
              HEAD IN LAYER   3 AT END OF TIME STEP  93 IN STRESS PERIOD    3
  ---------------------------------------------------------------------------

            1           2           3           4           5           6           7           8           9          10
 ........................................................................................................................
   1    9.997       8.887       7.776       6.666       5.555       4.445       3.335       2.224       1.114      3.3313E-03
   2    9.997       8.887       7.776       6.666       5.555       4.445       3.335       2.224       1.114      3.3313E-03
   3    9.997       8.887       7.776       6.666       5.555       4.445       3.335       2.224       1.114      3.3313E-03
   4    9.997       8.887       7.776       6.666       5.555       4.445       3.335       2.224       1.114      3.3313E-03
   5    9.997       8.887       7.776       6.666       5.555       4.445       3.335       2.224       1.114      3.3313E-03
   6    9.997       8.887       7.776       6.666       5.555       4.445       3.335       2.224       1.114      3.3313E-03
   7    9.997       8.887       7.776       6.666       5.555       4.445       3.335       2.224       1.114      3.3313E-03
   8    9.997       8.887       7.776       6.666       5.555       4.445       3.335       2.224       1.114      3.3313E-03
   9    9.997       8.887       7.776       6.666       5.555       4.445       3.335       2.224       1.114      3.3313E-03
  10    9.997       8.887       7.776       6.666       5.555       4.445       3.335       2.224       1.114      3.3313E-03
1
              HEAD IN LAYER   4 AT END OF TIME STEP  93 IN STRESS PERIOD    3
  ---------------------------------------------------------------------------

            1           2           3           4           5           6           7           8           9          10
 ........................................................................................................................
   1    9.997       8.887       7.776       6.666       5.555       4.445       3.335       2.224       1.114      3.3313E-03
   2    9.997       8.887       7.776       6.666       5.555       4.445       3.335       2.224       1.114      3.3313E-03
   3    9.997       8.887       7.776       6.666       5.555       4.445       3.335       2.224       1.114      3.3313E-03
   4    9.997       8.887       7.776       6.666       5.555       4.445       3.335       2.224       1.114      3.3313E-03
   5    9.997       8.887       7.776       6.666       5.555       4.445       3.335       2.224       1.114      3.3313E-03
   6    9.997       8.887       7.776       6.666       5.555       4.445       3.335       2.224       1.114      3.3313E-03
   7    9.997       8.887       7.776       6.666       5.555       4.445       3.335       2.224       1.114      3.3313E-03
   8    9.997       8.887       7.776       6.666       5.555       4.445       3.335       2.224       1.114      3.3313E-03
   9    9.997       8.887       7.776       6.666       5.555       4.445       3.335       2.224       1.114      3.3313E-03
  10    9.997       8.887       7.776       6.666       5.555       4.445       3.335       2.224       1.114      3.3313E-03

 HEAD WILL BE SAVED ON UNIT   51 AT END OF TIME STEP   93, STRESS PERIOD    3

 DRAWDOWN WILL BE SAVED ON UNIT   52 AT END OF TIME STEP   93, STRESS PERIOD    3
1
  VOLUMETRIC BUDGET FOR ENTIRE MODEL AT END OF TIME STEP   93, STRESS PERIOD   3
  ------------------------------------------------------------------------------

     CUMULATIVE VOLUMES      L**3       RATES FOR THIS TIME STEP      L**3/T
     ------------------                 ------------------------

           IN:                                      IN:
           ---                                      ---
             STORAGE =       1.0477E-08               STORAGE =           0.0000
       CONSTANT HEAD =           0.0000         CONSTANT HEAD =           0.0000
               WELLS =           0.0000                 WELLS =           0.0000
     HEAD DEP BOUNDS =      129264.5703       HEAD DEP BOUNDS =         666.3123

            TOTAL IN =      129264.5703              TOTAL IN =         666.3123

          OUT:                                     OUT:
          ----                                     ----
             STORAGE =       5.2387E-08               STORAGE =           0.0000
       CONSTANT HEAD =           0.0000         CONSTANT HEAD =           0.0000
               WELLS =           0.0000                 WELLS =           0.0000
     HEAD DEP BOUNDS =      129254.1094       HEAD DEP BOUNDS =         666.2595

           TOTAL OUT =      129254.1094             TOTAL OUT =         666.2595

            IN - OUT =          10.4609              IN - OUT =       5.2795E-02

 PERCENT DISCREPANCY =           0.01     PERCENT DISCREPANCY =           0.01






         TIME SUMMARY AT END OF TIME STEP   93 IN STRESS PERIOD    3
                    SECONDS     MINUTES      HOURS       DAYS        YEARS
                    -----------------------------------------------------------
   TIME STEP LENGTH  86400.      1440.0      24.000      1.0000     2.73785E-03
 STRESS PERIOD TIME 8.03520E+06 1.33920E+05  2232.0      93.000     0.25462    
         TOTAL TIME 1.67616E+07 2.79360E+05  4656.0      194.00     0.53114    
1
 
 SOLVING FOR HEAD 

 OUTPUT CONTROL FOR STRESS PERIOD    3   TIME STEP   94
    SAVE HEAD FOR ALL LAYERS
    SAVE DRAWDOWN FOR ALL LAYERS
    SAVE BUDGET
    PRINT HEAD FOR ALL LAYERS
    PRINT BUDGET
 UBDSV1 SAVING "         STORAGE" ON UNIT  53 AT TIME STEP 94, STRESS PERIOD   3
 UBDSV2 SAVING "   CONSTANT HEAD" ON UNIT  53 AT TIME STEP 94, STRESS PERIOD   3
 UBDSV1 SAVING "FLOW RIGHT FACE " ON UNIT  53 AT TIME STEP 94, STRESS PERIOD   3
 UBDSV1 SAVING "FLOW FRONT FACE " ON UNIT  53 AT TIME STEP 94, STRESS PERIOD   3
 UBDSV1 SAVING "FLOW LOWER FACE " ON UNIT  53 AT TIME STEP 94, STRESS PERIOD   3
1
              HEAD IN LAYER   1 AT END OF TIME STEP  94 IN STRESS PERIOD    3
  ---------------------------------------------------------------------------

            1           2           3           4           5           6           7           8           9          10
 ........................................................................................................................
   1    9.997       8.887       7.776       6.666       5.555       4.445       3.335       2.224       1.114      3.3313E-03
   2    9.997       8.887       7.776       6.666       5.555       4.445       3.335       2.224       1.114      3.3313E-03
   3    9.997       8.887       7.776       6.666       5.555       4.445       3.335       2.224       1.114      3.3313E-03
   4    9.997       8.887       7.776       6.666       5.555       4.445       3.335       2.224       1.114      3.3313E-03
   5    9.997       8.887       7.776       6.666       5.555       4.445       3.335       2.224       1.114      3.3313E-03
   6    9.997       8.887       7.776       6.666       5.555       4.445       3.335       2.224       1.114      3.3313E-03
   7    9.997       8.887       7.776       6.666       5.555       4.445       3.335       2.224       1.114      3.3313E-03
   8    9.997       8.887       7.776       6.666       5.555       4.445       3.335       2.224       1.114      3.3313E-03
   9    9.997       8.887       7.776       6.666       5.555       4.445       3.335       2.224       1.114      3.3313E-03
  10    9.997       8.887       7.776       6.666       5.555       4.445       3.335       2.224       1.114      3.3313E-03
1
              HEAD IN LAYER   2 AT END OF TIME STEP  94 IN STRESS PERIOD    3
  ---------------------------------------------------------------------------

            1           2           3           4           5           6           7           8           9          10
 ........................................................................................................................
   1    9.997       8.887       7.776       6.666       5.555       4.445       3.335       2.224       1.114      3.3313E-03
   2    9.997       8.887       7.776       6.666       5.555       4.445       3.335       2.224       1.114      3.3313E-03
   3    9.997       8.887       7.776       6.666       5.555       4.445       3.335       2.224       1.114      3.3313E-03
   4    9.997       8.887       7.776       6.666       5.555       4.445       3.335       2.224       1.114      3.3313E-03
   5    9.997       8.887       7.776       6.666       5.555       4.445       3.335       2.224       1.114      3.3313E-03
   6    9.997       8.887       7.776       6.666       5.555       4.445       3.335       2.224       1.114      3.3313E-03
   7    9.997       8.887       7.776       6.666       5.555       4.445       3.335       2.224       1.114      3.3313E-03
   8    9.997       8.887       7.776       6.666       5.555       4.445       3.335       2.224       1.114      3.3313E-03
   9    9.997       8.887       7.776       6.666       5.555       4.445       3.335       2.224       1.114      3.3313E-03
  10    9.997       8.887       7.776       6.666       5.555       4.445       3.335       2.224       1.114      3.3313E-03
1
              HEAD IN LAYER   3 AT END OF TIME STEP  94 IN STRESS PERIOD    3
  ---------------------------------------------------------------------------

            1           2           3           4           5           6           7           8           9          10
 ........................................................................................................................
   1    9.997       8.887       7.776       6.666       5.555       4.445       3.335       2.224       1.114      3.3313E-03
   2    9.997       8.887       7.776       6.666       5.555       4.445       3.335       2.224       1.114      3.3313E-03
   3    9.997       8.887       7.776       6.666       5.555       4.445       3.335       2.224       1.114      3.3313E-03
   4    9.997       8.887       7.776       6.666       5.555       4.445       3.335       2.224       1.114      3.3313E-03
   5    9.997       8.887       7.776       6.666       5.555       4.445       3.335       2.224       1.114      3.3313E-03
   6    9.997       8.887       7.776       6.666       5.555       4.445       3.335       2.224       1.114      3.3313E-03
   7    9.997       8.887       7.776       6.666       5.555       4.445       3.335       2.224       1.114      3.3313E-03
   8    9.997       8.887       7.776       6.666       5.555       4.445       3.335       2.224       1.114      3.3313E-03
   9    9.997       8.887       7.776       6.666       5.555       4.445       3.335       2.224       1.114      3.3313E-03
  10    9.997       8.887       7.776       6.666       5.555       4.445       3.335       2.224       1.114      3.3313E-03
1
              HEAD IN LAYER   4 AT END OF TIME STEP  94 IN STRESS PERIOD    3
  ---------------------------------------------------------------------------

            1           2           3           4           5           6           7           8           9          10
 ........................................................................................................................
   1    9.997       8.887       7.776       6.666       5.555       4.445       3.335       2.224       1.114      3.3313E-03
   2    9.997       8.887       7.776       6.666       5.555       4.445       3.335       2.224       1.114      3.3313E-03
   3    9.997       8.887       7.776       6.666       5.555       4.445       3.335       2.224       1.114      3.3313E-03
   4    9.997       8.887       7.776       6.666       5.555       4.445       3.335       2.224       1.114      3.3313E-03
   5    9.997       8.887       7.776       6.666       5.555       4.445       3.335       2.224       1.114      3.3313E-03
   6    9.997       8.887       7.776       6.666       5.555       4.445       3.335       2.224       1.114      3.3313E-03
   7    9.997       8.887       7.776       6.666       5.555       4.445       3.335       2.224       1.114      3.3313E-03
   8    9.997       8.887       7.776       6.666       5.555       4.445       3.335       2.224       1.114      3.3313E-03
   9    9.997       8.887       7.776       6.666       5.555       4.445       3.335       2.224       1.114      3.3313E-03
  10    9.997       8.887       7.776       6.666       5.555       4.445       3.335       2.224       1.114      3.3313E-03

 HEAD WILL BE SAVED ON UNIT   51 AT END OF TIME STEP   94, STRESS PERIOD    3

 DRAWDOWN WILL BE SAVED ON UNIT   52 AT END OF TIME STEP   94, STRESS PERIOD    3
1
  VOLUMETRIC BUDGET FOR ENTIRE MODEL AT END OF TIME STEP   94, STRESS PERIOD   3
  ------------------------------------------------------------------------------

     CUMULATIVE VOLUMES      L**3       RATES FOR THIS TIME STEP      L**3/T
     ------------------                 ------------------------

           IN:                                      IN:
           ---                                      ---
             STORAGE =       1.0477E-08               STORAGE =           0.0000
       CONSTANT HEAD =           0.0000         CONSTANT HEAD =           0.0000
               WELLS =           0.0000                 WELLS =           0.0000
     HEAD DEP BOUNDS =      129930.8828       HEAD DEP BOUNDS =         666.3123

            TOTAL IN =      129930.8828              TOTAL IN =         666.3123

          OUT:                                     OUT:
          ----                                     ----
             STORAGE =       5.2387E-08               STORAGE =           0.0000
       CONSTANT HEAD =           0.0000         CONSTANT HEAD =           0.0000
               WELLS =           0.0000                 WELLS =           0.0000
     HEAD DEP BOUNDS =      129920.3672       HEAD DEP BOUNDS =         666.2595

           TOTAL OUT =      129920.3672             TOTAL OUT =         666.2595

            IN - OUT =          10.5156              IN - OUT =       5.2795E-02

 PERCENT DISCREPANCY =           0.01     PERCENT DISCREPANCY =           0.01






         TIME SUMMARY AT END OF TIME STEP   94 IN STRESS PERIOD    3
                    SECONDS     MINUTES      HOURS       DAYS        YEARS
                    -----------------------------------------------------------
   TIME STEP LENGTH  86400.      1440.0      24.000      1.0000     2.73785E-03
 STRESS PERIOD TIME 8.12160E+06 1.35360E+05  2256.0      94.000     0.25736    
         TOTAL TIME 1.68480E+07 2.80800E+05  4680.0      195.00     0.53388    
1
 
 SOLVING FOR HEAD 

 OUTPUT CONTROL FOR STRESS PERIOD    3   TIME STEP   95
    SAVE HEAD FOR ALL LAYERS
    SAVE DRAWDOWN FOR ALL LAYERS
    SAVE BUDGET
    PRINT HEAD FOR ALL LAYERS
    PRINT BUDGET
 UBDSV1 SAVING "         STORAGE" ON UNIT  53 AT TIME STEP 95, STRESS PERIOD   3
 UBDSV2 SAVING "   CONSTANT HEAD" ON UNIT  53 AT TIME STEP 95, STRESS PERIOD   3
 UBDSV1 SAVING "FLOW RIGHT FACE " ON UNIT  53 AT TIME STEP 95, STRESS PERIOD   3
 UBDSV1 SAVING "FLOW FRONT FACE " ON UNIT  53 AT TIME STEP 95, STRESS PERIOD   3
 UBDSV1 SAVING "FLOW LOWER FACE " ON UNIT  53 AT TIME STEP 95, STRESS PERIOD   3
1
              HEAD IN LAYER   1 AT END OF TIME STEP  95 IN STRESS PERIOD    3
  ---------------------------------------------------------------------------

            1           2           3           4           5           6           7           8           9          10
 ........................................................................................................................
   1    9.997       8.887       7.776       6.666       5.555       4.445       3.335       2.224       1.114      3.3313E-03
   2    9.997       8.887       7.776       6.666       5.555       4.445       3.335       2.224       1.114      3.3313E-03
   3    9.997       8.887       7.776       6.666       5.555       4.445       3.335       2.224       1.114      3.3313E-03
   4    9.997       8.887       7.776       6.666       5.555       4.445       3.335       2.224       1.114      3.3313E-03
   5    9.997       8.887       7.776       6.666       5.555       4.445       3.335       2.224       1.114      3.3313E-03
   6    9.997       8.887       7.776       6.666       5.555       4.445       3.335       2.224       1.114      3.3313E-03
   7    9.997       8.887       7.776       6.666       5.555       4.445       3.335       2.224       1.114      3.3313E-03
   8    9.997       8.887       7.776       6.666       5.555       4.445       3.335       2.224       1.114      3.3313E-03
   9    9.997       8.887       7.776       6.666       5.555       4.445       3.335       2.224       1.114      3.3313E-03
  10    9.997       8.887       7.776       6.666       5.555       4.445       3.335       2.224       1.114      3.3313E-03
1
              HEAD IN LAYER   2 AT END OF TIME STEP  95 IN STRESS PERIOD    3
  ---------------------------------------------------------------------------

            1           2           3           4           5           6           7           8           9          10
 ........................................................................................................................
   1    9.997       8.887       7.776       6.666       5.555       4.445       3.335       2.224       1.114      3.3313E-03
   2    9.997       8.887       7.776       6.666       5.555       4.445       3.335       2.224       1.114      3.3313E-03
   3    9.997       8.887       7.776       6.666       5.555       4.445       3.335       2.224       1.114      3.3313E-03
   4    9.997       8.887       7.776       6.666       5.555       4.445       3.335       2.224       1.114      3.3313E-03
   5    9.997       8.887       7.776       6.666       5.555       4.445       3.335       2.224       1.114      3.3313E-03
   6    9.997       8.887       7.776       6.666       5.555       4.445       3.335       2.224       1.114      3.3313E-03
   7    9.997       8.887       7.776       6.666       5.555       4.445       3.335       2.224       1.114      3.3313E-03
   8    9.997       8.887       7.776       6.666       5.555       4.445       3.335       2.224       1.114      3.3313E-03
   9    9.997       8.887       7.776       6.666       5.555       4.445       3.335       2.224       1.114      3.3313E-03
  10    9.997       8.887       7.776       6.666       5.555       4.445       3.335       2.224       1.114      3.3313E-03
1
              HEAD IN LAYER   3 AT END OF TIME STEP  95 IN STRESS PERIOD    3
  ---------------------------------------------------------------------------

            1           2           3           4           5           6           7           8           9          10
 ........................................................................................................................
   1    9.997       8.887       7.776       6.666       5.555       4.445       3.335       2.224       1.114      3.3313E-03
   2    9.997       8.887       7.776       6.666       5.555       4.445       3.335       2.224       1.114      3.3313E-03
   3    9.997       8.887       7.776       6.666       5.555       4.445       3.335       2.224       1.114      3.3313E-03
   4    9.997       8.887       7.776       6.666       5.555       4.445       3.335       2.224       1.114      3.3313E-03
   5    9.997       8.887       7.776       6.666       5.555       4.445       3.335       2.224       1.114      3.3313E-03
   6    9.997       8.887       7.776       6.666       5.555       4.445       3.335       2.224       1.114      3.3313E-03
   7    9.997       8.887       7.776       6.666       5.555       4.445       3.335       2.224       1.114      3.3313E-03
   8    9.997       8.887       7.776       6.666       5.555       4.445       3.335       2.224       1.114      3.3313E-03
   9    9.997       8.887       7.776       6.666       5.555       4.445       3.335       2.224       1.114      3.3313E-03
  10    9.997       8.887       7.776       6.666       5.555       4.445       3.335       2.224       1.114      3.3313E-03
1
              HEAD IN LAYER   4 AT END OF TIME STEP  95 IN STRESS PERIOD    3
  ---------------------------------------------------------------------------

            1           2           3           4           5           6           7           8           9          10
 ........................................................................................................................
   1    9.997       8.887       7.776       6.666       5.555       4.445       3.335       2.224       1.114      3.3313E-03
   2    9.997       8.887       7.776       6.666       5.555       4.445       3.335       2.224       1.114      3.3313E-03
   3    9.997       8.887       7.776       6.666       5.555       4.445       3.335       2.224       1.114      3.3313E-03
   4    9.997       8.887       7.776       6.666       5.555       4.445       3.335       2.224       1.114      3.3313E-03
   5    9.997       8.887       7.776       6.666       5.555       4.445       3.335       2.224       1.114      3.3313E-03
   6    9.997       8.887       7.776       6.666       5.555       4.445       3.335       2.224       1.114      3.3313E-03
   7    9.997       8.887       7.776       6.666       5.555       4.445       3.335       2.224       1.114      3.3313E-03
   8    9.997       8.887       7.776       6.666       5.555       4.445       3.335       2.224       1.114      3.3313E-03
   9    9.997       8.887       7.776       6.666       5.555       4.445       3.335       2.224       1.114      3.3313E-03
  10    9.997       8.887       7.776       6.666       5.555       4.445       3.335       2.224       1.114      3.3313E-03

 HEAD WILL BE SAVED ON UNIT   51 AT END OF TIME STEP   95, STRESS PERIOD    3

 DRAWDOWN WILL BE SAVED ON UNIT   52 AT END OF TIME STEP   95, STRESS PERIOD    3
1
  VOLUMETRIC BUDGET FOR ENTIRE MODEL AT END OF TIME STEP   95, STRESS PERIOD   3
  ------------------------------------------------------------------------------

     CUMULATIVE VOLUMES      L**3       RATES FOR THIS TIME STEP      L**3/T
     ------------------                 ------------------------

           IN:                                      IN:
           ---                                      ---
             STORAGE =       1.0477E-08               STORAGE =           0.0000
       CONSTANT HEAD =           0.0000         CONSTANT HEAD =           0.0000
               WELLS =           0.0000                 WELLS =           0.0000
     HEAD DEP BOUNDS =      130597.1953       HEAD DEP BOUNDS =         666.3123

            TOTAL IN =      130597.1953              TOTAL IN =         666.3123

          OUT:                                     OUT:
          ----                                     ----
             STORAGE =       5.2387E-08               STORAGE =           0.0000
       CONSTANT HEAD =           0.0000         CONSTANT HEAD =           0.0000
               WELLS =           0.0000                 WELLS =           0.0000
     HEAD DEP BOUNDS =      130586.6250       HEAD DEP BOUNDS =         666.2595

           TOTAL OUT =      130586.6250             TOTAL OUT =         666.2595

            IN - OUT =          10.5703              IN - OUT =       5.2795E-02

 PERCENT DISCREPANCY =           0.01     PERCENT DISCREPANCY =           0.01






         TIME SUMMARY AT END OF TIME STEP   95 IN STRESS PERIOD    3
                    SECONDS     MINUTES      HOURS       DAYS        YEARS
                    -----------------------------------------------------------
   TIME STEP LENGTH  86400.      1440.0      24.000      1.0000     2.73785E-03
 STRESS PERIOD TIME 8.20800E+06 1.36800E+05  2280.0      95.000     0.26010    
         TOTAL TIME 1.69344E+07 2.82240E+05  4704.0      196.00     0.53662    
1
 
 SOLVING FOR HEAD 

 OUTPUT CONTROL FOR STRESS PERIOD    3   TIME STEP   96
    SAVE HEAD FOR ALL LAYERS
    SAVE DRAWDOWN FOR ALL LAYERS
    SAVE BUDGET
    PRINT HEAD FOR ALL LAYERS
    PRINT BUDGET
 UBDSV1 SAVING "         STORAGE" ON UNIT  53 AT TIME STEP 96, STRESS PERIOD   3
 UBDSV2 SAVING "   CONSTANT HEAD" ON UNIT  53 AT TIME STEP 96, STRESS PERIOD   3
 UBDSV1 SAVING "FLOW RIGHT FACE " ON UNIT  53 AT TIME STEP 96, STRESS PERIOD   3
 UBDSV1 SAVING "FLOW FRONT FACE " ON UNIT  53 AT TIME STEP 96, STRESS PERIOD   3
 UBDSV1 SAVING "FLOW LOWER FACE " ON UNIT  53 AT TIME STEP 96, STRESS PERIOD   3
1
              HEAD IN LAYER   1 AT END OF TIME STEP  96 IN STRESS PERIOD    3
  ---------------------------------------------------------------------------

            1           2           3           4           5           6           7           8           9          10
 ........................................................................................................................
   1    9.997       8.887       7.776       6.666       5.555       4.445       3.335       2.224       1.114      3.3313E-03
   2    9.997       8.887       7.776       6.666       5.555       4.445       3.335       2.224       1.114      3.3313E-03
   3    9.997       8.887       7.776       6.666       5.555       4.445       3.335       2.224       1.114      3.3313E-03
   4    9.997       8.887       7.776       6.666       5.555       4.445       3.335       2.224       1.114      3.3313E-03
   5    9.997       8.887       7.776       6.666       5.555       4.445       3.335       2.224       1.114      3.3313E-03
   6    9.997       8.887       7.776       6.666       5.555       4.445       3.335       2.224       1.114      3.3313E-03
   7    9.997       8.887       7.776       6.666       5.555       4.445       3.335       2.224       1.114      3.3313E-03
   8    9.997       8.887       7.776       6.666       5.555       4.445       3.335       2.224       1.114      3.3313E-03
   9    9.997       8.887       7.776       6.666       5.555       4.445       3.335       2.224       1.114      3.3313E-03
  10    9.997       8.887       7.776       6.666       5.555       4.445       3.335       2.224       1.114      3.3313E-03
1
              HEAD IN LAYER   2 AT END OF TIME STEP  96 IN STRESS PERIOD    3
  ---------------------------------------------------------------------------

            1           2           3           4           5           6           7           8           9          10
 ........................................................................................................................
   1    9.997       8.887       7.776       6.666       5.555       4.445       3.335       2.224       1.114      3.3313E-03
   2    9.997       8.887       7.776       6.666       5.555       4.445       3.335       2.224       1.114      3.3313E-03
   3    9.997       8.887       7.776       6.666       5.555       4.445       3.335       2.224       1.114      3.3313E-03
   4    9.997       8.887       7.776       6.666       5.555       4.445       3.335       2.224       1.114      3.3313E-03
   5    9.997       8.887       7.776       6.666       5.555       4.445       3.335       2.224       1.114      3.3313E-03
   6    9.997       8.887       7.776       6.666       5.555       4.445       3.335       2.224       1.114      3.3313E-03
   7    9.997       8.887       7.776       6.666       5.555       4.445       3.335       2.224       1.114      3.3313E-03
   8    9.997       8.887       7.776       6.666       5.555       4.445       3.335       2.224       1.114      3.3313E-03
   9    9.997       8.887       7.776       6.666       5.555       4.445       3.335       2.224       1.114      3.3313E-03
  10    9.997       8.887       7.776       6.666       5.555       4.445       3.335       2.224       1.114      3.3313E-03
1
              HEAD IN LAYER   3 AT END OF TIME STEP  96 IN STRESS PERIOD    3
  ---------------------------------------------------------------------------

            1           2           3           4           5           6           7           8           9          10
 ........................................................................................................................
   1    9.997       8.887       7.776       6.666       5.555       4.445       3.335       2.224       1.114      3.3313E-03
   2    9.997       8.887       7.776       6.666       5.555       4.445       3.335       2.224       1.114      3.3313E-03
   3    9.997       8.887       7.776       6.666       5.555       4.445       3.335       2.224       1.114      3.3313E-03
   4    9.997       8.887       7.776       6.666       5.555       4.445       3.335       2.224       1.114      3.3313E-03
   5    9.997       8.887       7.776       6.666       5.555       4.445       3.335       2.224       1.114      3.3313E-03
   6    9.997       8.887       7.776       6.666       5.555       4.445       3.335       2.224       1.114      3.3313E-03
   7    9.997       8.887       7.776       6.666       5.555       4.445       3.335       2.224       1.114      3.3313E-03
   8    9.997       8.887       7.776       6.666       5.555       4.445       3.335       2.224       1.114      3.3313E-03
   9    9.997       8.887       7.776       6.666       5.555       4.445       3.335       2.224       1.114      3.3313E-03
  10    9.997       8.887       7.776       6.666       5.555       4.445       3.335       2.224       1.114      3.3313E-03
1
              HEAD IN LAYER   4 AT END OF TIME STEP  96 IN STRESS PERIOD    3
  ---------------------------------------------------------------------------

            1           2           3           4           5           6           7           8           9          10
 ........................................................................................................................
   1    9.997       8.887       7.776       6.666       5.555       4.445       3.335       2.224       1.114      3.3313E-03
   2    9.997       8.887       7.776       6.666       5.555       4.445       3.335       2.224       1.114      3.3313E-03
   3    9.997       8.887       7.776       6.666       5.555       4.445       3.335       2.224       1.114      3.3313E-03
   4    9.997       8.887       7.776       6.666       5.555       4.445       3.335       2.224       1.114      3.3313E-03
   5    9.997       8.887       7.776       6.666       5.555       4.445       3.335       2.224       1.114      3.3313E-03
   6    9.997       8.887       7.776       6.666       5.555       4.445       3.335       2.224       1.114      3.3313E-03
   7    9.997       8.887       7.776       6.666       5.555       4.445       3.335       2.224       1.114      3.3313E-03
   8    9.997       8.887       7.776       6.666       5.555       4.445       3.335       2.224       1.114      3.3313E-03
   9    9.997       8.887       7.776       6.666       5.555       4.445       3.335       2.224       1.114      3.3313E-03
  10    9.997       8.887       7.776       6.666       5.555       4.445       3.335       2.224       1.114      3.3313E-03

 HEAD WILL BE SAVED ON UNIT   51 AT END OF TIME STEP   96, STRESS PERIOD    3

 DRAWDOWN WILL BE SAVED ON UNIT   52 AT END OF TIME STEP   96, STRESS PERIOD    3
1
  VOLUMETRIC BUDGET FOR ENTIRE MODEL AT END OF TIME STEP   96, STRESS PERIOD   3
  ------------------------------------------------------------------------------

     CUMULATIVE VOLUMES      L**3       RATES FOR THIS TIME STEP      L**3/T
     ------------------                 ------------------------

           IN:                                      IN:
           ---                                      ---
             STORAGE =       1.0477E-08               STORAGE =           0.0000
       CONSTANT HEAD =           0.0000         CONSTANT HEAD =           0.0000
               WELLS =           0.0000                 WELLS =           0.0000
     HEAD DEP BOUNDS =      131263.5000       HEAD DEP BOUNDS =         666.3123

            TOTAL IN =      131263.5000              TOTAL IN =         666.3123

          OUT:                                     OUT:
          ----                                     ----
             STORAGE =       5.2387E-08               STORAGE =           0.0000
       CONSTANT HEAD =           0.0000         CONSTANT HEAD =           0.0000
               WELLS =           0.0000                 WELLS =           0.0000
     HEAD DEP BOUNDS =      131252.8906       HEAD DEP BOUNDS =         666.2595

           TOTAL OUT =      131252.8906             TOTAL OUT =         666.2595

            IN - OUT =          10.6094              IN - OUT =       5.2795E-02

 PERCENT DISCREPANCY =           0.01     PERCENT DISCREPANCY =           0.01






         TIME SUMMARY AT END OF TIME STEP   96 IN STRESS PERIOD    3
                    SECONDS     MINUTES      HOURS       DAYS        YEARS
                    -----------------------------------------------------------
   TIME STEP LENGTH  86400.      1440.0      24.000      1.0000     2.73785E-03
 STRESS PERIOD TIME 8.29440E+06 1.38240E+05  2304.0      96.000     0.26283    
         TOTAL TIME 1.70208E+07 2.83680E+05  4728.0      197.00     0.53936    
1
 
 SOLVING FOR HEAD 

 OUTPUT CONTROL FOR STRESS PERIOD    3   TIME STEP   97
    SAVE HEAD FOR ALL LAYERS
    SAVE DRAWDOWN FOR ALL LAYERS
    SAVE BUDGET
    PRINT HEAD FOR ALL LAYERS
    PRINT BUDGET
 UBDSV1 SAVING "         STORAGE" ON UNIT  53 AT TIME STEP 97, STRESS PERIOD   3
 UBDSV2 SAVING "   CONSTANT HEAD" ON UNIT  53 AT TIME STEP 97, STRESS PERIOD   3
 UBDSV1 SAVING "FLOW RIGHT FACE " ON UNIT  53 AT TIME STEP 97, STRESS PERIOD   3
 UBDSV1 SAVING "FLOW FRONT FACE " ON UNIT  53 AT TIME STEP 97, STRESS PERIOD   3
 UBDSV1 SAVING "FLOW LOWER FACE " ON UNIT  53 AT TIME STEP 97, STRESS PERIOD   3
1
              HEAD IN LAYER   1 AT END OF TIME STEP  97 IN STRESS PERIOD    3
  ---------------------------------------------------------------------------

            1           2           3           4           5           6           7           8           9          10
 ........................................................................................................................
   1    9.997       8.887       7.776       6.666       5.555       4.445       3.335       2.224       1.114      3.3313E-03
   2    9.997       8.887       7.776       6.666       5.555       4.445       3.335       2.224       1.114      3.3313E-03
   3    9.997       8.887       7.776       6.666       5.555       4.445       3.335       2.224       1.114      3.3313E-03
   4    9.997       8.887       7.776       6.666       5.555       4.445       3.335       2.224       1.114      3.3313E-03
   5    9.997       8.887       7.776       6.666       5.555       4.445       3.335       2.224       1.114      3.3313E-03
   6    9.997       8.887       7.776       6.666       5.555       4.445       3.335       2.224       1.114      3.3313E-03
   7    9.997       8.887       7.776       6.666       5.555       4.445       3.335       2.224       1.114      3.3313E-03
   8    9.997       8.887       7.776       6.666       5.555       4.445       3.335       2.224       1.114      3.3313E-03
   9    9.997       8.887       7.776       6.666       5.555       4.445       3.335       2.224       1.114      3.3313E-03
  10    9.997       8.887       7.776       6.666       5.555       4.445       3.335       2.224       1.114      3.3313E-03
1
              HEAD IN LAYER   2 AT END OF TIME STEP  97 IN STRESS PERIOD    3
  ---------------------------------------------------------------------------

            1           2           3           4           5           6           7           8           9          10
 ........................................................................................................................
   1    9.997       8.887       7.776       6.666       5.555       4.445       3.335       2.224       1.114      3.3313E-03
   2    9.997       8.887       7.776       6.666       5.555       4.445       3.335       2.224       1.114      3.3313E-03
   3    9.997       8.887       7.776       6.666       5.555       4.445       3.335       2.224       1.114      3.3313E-03
   4    9.997       8.887       7.776       6.666       5.555       4.445       3.335       2.224       1.114      3.3313E-03
   5    9.997       8.887       7.776       6.666       5.555       4.445       3.335       2.224       1.114      3.3313E-03
   6    9.997       8.887       7.776       6.666       5.555       4.445       3.335       2.224       1.114      3.3313E-03
   7    9.997       8.887       7.776       6.666       5.555       4.445       3.335       2.224       1.114      3.3313E-03
   8    9.997       8.887       7.776       6.666       5.555       4.445       3.335       2.224       1.114      3.3313E-03
   9    9.997       8.887       7.776       6.666       5.555       4.445       3.335       2.224       1.114      3.3313E-03
  10    9.997       8.887       7.776       6.666       5.555       4.445       3.335       2.224       1.114      3.3313E-03
1
              HEAD IN LAYER   3 AT END OF TIME STEP  97 IN STRESS PERIOD    3
  ---------------------------------------------------------------------------

            1           2           3           4           5           6           7           8           9          10
 ........................................................................................................................
   1    9.997       8.887       7.776       6.666       5.555       4.445       3.335       2.224       1.114      3.3313E-03
   2    9.997       8.887       7.776       6.666       5.555       4.445       3.335       2.224       1.114      3.3313E-03
   3    9.997       8.887       7.776       6.666       5.555       4.445       3.335       2.224       1.114      3.3313E-03
   4    9.997       8.887       7.776       6.666       5.555       4.445       3.335       2.224       1.114      3.3313E-03
   5    9.997       8.887       7.776       6.666       5.555       4.445       3.335       2.224       1.114      3.3313E-03
   6    9.997       8.887       7.776       6.666       5.555       4.445       3.335       2.224       1.114      3.3313E-03
   7    9.997       8.887       7.776       6.666       5.555       4.445       3.335       2.224       1.114      3.3313E-03
   8    9.997       8.887       7.776       6.666       5.555       4.445       3.335       2.224       1.114      3.3313E-03
   9    9.997       8.887       7.776       6.666       5.555       4.445       3.335       2.224       1.114      3.3313E-03
  10    9.997       8.887       7.776       6.666       5.555       4.445       3.335       2.224       1.114      3.3313E-03
1
              HEAD IN LAYER   4 AT END OF TIME STEP  97 IN STRESS PERIOD    3
  ---------------------------------------------------------------------------

            1           2           3           4           5           6           7           8           9          10
 ........................................................................................................................
   1    9.997       8.887       7.776       6.666       5.555       4.445       3.335       2.224       1.114      3.3313E-03
   2    9.997       8.887       7.776       6.666       5.555       4.445       3.335       2.224       1.114      3.3313E-03
   3    9.997       8.887       7.776       6.666       5.555       4.445       3.335       2.224       1.114      3.3313E-03
   4    9.997       8.887       7.776       6.666       5.555       4.445       3.335       2.224       1.114      3.3313E-03
   5    9.997       8.887       7.776       6.666       5.555       4.445       3.335       2.224       1.114      3.3313E-03
   6    9.997       8.887       7.776       6.666       5.555       4.445       3.335       2.224       1.114      3.3313E-03
   7    9.997       8.887       7.776       6.666       5.555       4.445       3.335       2.224       1.114      3.3313E-03
   8    9.997       8.887       7.776       6.666       5.555       4.445       3.335       2.224       1.114      3.3313E-03
   9    9.997       8.887       7.776       6.666       5.555       4.445       3.335       2.224       1.114      3.3313E-03
  10    9.997       8.887       7.776       6.666       5.555       4.445       3.335       2.224       1.114      3.3313E-03

 HEAD WILL BE SAVED ON UNIT   51 AT END OF TIME STEP   97, STRESS PERIOD    3

 DRAWDOWN WILL BE SAVED ON UNIT   52 AT END OF TIME STEP   97, STRESS PERIOD    3
1
  VOLUMETRIC BUDGET FOR ENTIRE MODEL AT END OF TIME STEP   97, STRESS PERIOD   3
  ------------------------------------------------------------------------------

     CUMULATIVE VOLUMES      L**3       RATES FOR THIS TIME STEP      L**3/T
     ------------------                 ------------------------

           IN:                                      IN:
           ---                                      ---
             STORAGE =       1.0477E-08               STORAGE =           0.0000
       CONSTANT HEAD =           0.0000         CONSTANT HEAD =           0.0000
               WELLS =           0.0000                 WELLS =           0.0000
     HEAD DEP BOUNDS =      131929.8125       HEAD DEP BOUNDS =         666.3123

            TOTAL IN =      131929.8125              TOTAL IN =         666.3123

          OUT:                                     OUT:
          ----                                     ----
             STORAGE =       5.2387E-08               STORAGE =           0.0000
       CONSTANT HEAD =           0.0000         CONSTANT HEAD =           0.0000
               WELLS =           0.0000                 WELLS =           0.0000
     HEAD DEP BOUNDS =      131919.1562       HEAD DEP BOUNDS =         666.2595

           TOTAL OUT =      131919.1562             TOTAL OUT =         666.2595

            IN - OUT =          10.6562              IN - OUT =       5.2795E-02

 PERCENT DISCREPANCY =           0.01     PERCENT DISCREPANCY =           0.01






         TIME SUMMARY AT END OF TIME STEP   97 IN STRESS PERIOD    3
                    SECONDS     MINUTES      HOURS       DAYS        YEARS
                    -----------------------------------------------------------
   TIME STEP LENGTH  86400.      1440.0      24.000      1.0000     2.73785E-03
 STRESS PERIOD TIME 8.38080E+06 1.39680E+05  2328.0      97.000     0.26557    
         TOTAL TIME 1.71072E+07 2.85120E+05  4752.0      198.00     0.54209    
1
 
 SOLVING FOR HEAD 

 OUTPUT CONTROL FOR STRESS PERIOD    3   TIME STEP   98
    SAVE HEAD FOR ALL LAYERS
    SAVE DRAWDOWN FOR ALL LAYERS
    SAVE BUDGET
    PRINT HEAD FOR ALL LAYERS
    PRINT BUDGET
 UBDSV1 SAVING "         STORAGE" ON UNIT  53 AT TIME STEP 98, STRESS PERIOD   3
 UBDSV2 SAVING "   CONSTANT HEAD" ON UNIT  53 AT TIME STEP 98, STRESS PERIOD   3
 UBDSV1 SAVING "FLOW RIGHT FACE " ON UNIT  53 AT TIME STEP 98, STRESS PERIOD   3
 UBDSV1 SAVING "FLOW FRONT FACE " ON UNIT  53 AT TIME STEP 98, STRESS PERIOD   3
 UBDSV1 SAVING "FLOW LOWER FACE " ON UNIT  53 AT TIME STEP 98, STRESS PERIOD   3
1
              HEAD IN LAYER   1 AT END OF TIME STEP  98 IN STRESS PERIOD    3
  ---------------------------------------------------------------------------

            1           2           3           4           5           6           7           8           9          10
 ........................................................................................................................
   1    9.997       8.887       7.776       6.666       5.555       4.445       3.335       2.224       1.114      3.3313E-03
   2    9.997       8.887       7.776       6.666       5.555       4.445       3.335       2.224       1.114      3.3313E-03
   3    9.997       8.887       7.776       6.666       5.555       4.445       3.335       2.224       1.114      3.3313E-03
   4    9.997       8.887       7.776       6.666       5.555       4.445       3.335       2.224       1.114      3.3313E-03
   5    9.997       8.887       7.776       6.666       5.555       4.445       3.335       2.224       1.114      3.3313E-03
   6    9.997       8.887       7.776       6.666       5.555       4.445       3.335       2.224       1.114      3.3313E-03
   7    9.997       8.887       7.776       6.666       5.555       4.445       3.335       2.224       1.114      3.3313E-03
   8    9.997       8.887       7.776       6.666       5.555       4.445       3.335       2.224       1.114      3.3313E-03
   9    9.997       8.887       7.776       6.666       5.555       4.445       3.335       2.224       1.114      3.3313E-03
  10    9.997       8.887       7.776       6.666       5.555       4.445       3.335       2.224       1.114      3.3313E-03
1
              HEAD IN LAYER   2 AT END OF TIME STEP  98 IN STRESS PERIOD    3
  ---------------------------------------------------------------------------

            1           2           3           4           5           6           7           8           9          10
 ........................................................................................................................
   1    9.997       8.887       7.776       6.666       5.555       4.445       3.335       2.224       1.114      3.3313E-03
   2    9.997       8.887       7.776       6.666       5.555       4.445       3.335       2.224       1.114      3.3313E-03
   3    9.997       8.887       7.776       6.666       5.555       4.445       3.335       2.224       1.114      3.3313E-03
   4    9.997       8.887       7.776       6.666       5.555       4.445       3.335       2.224       1.114      3.3313E-03
   5    9.997       8.887       7.776       6.666       5.555       4.445       3.335       2.224       1.114      3.3313E-03
   6    9.997       8.887       7.776       6.666       5.555       4.445       3.335       2.224       1.114      3.3313E-03
   7    9.997       8.887       7.776       6.666       5.555       4.445       3.335       2.224       1.114      3.3313E-03
   8    9.997       8.887       7.776       6.666       5.555       4.445       3.335       2.224       1.114      3.3313E-03
   9    9.997       8.887       7.776       6.666       5.555       4.445       3.335       2.224       1.114      3.3313E-03
  10    9.997       8.887       7.776       6.666       5.555       4.445       3.335       2.224       1.114      3.3313E-03
1
              HEAD IN LAYER   3 AT END OF TIME STEP  98 IN STRESS PERIOD    3
  ---------------------------------------------------------------------------

            1           2           3           4           5           6           7           8           9          10
 ........................................................................................................................
   1    9.997       8.887       7.776       6.666       5.555       4.445       3.335       2.224       1.114      3.3313E-03
   2    9.997       8.887       7.776       6.666       5.555       4.445       3.335       2.224       1.114      3.3313E-03
   3    9.997       8.887       7.776       6.666       5.555       4.445       3.335       2.224       1.114      3.3313E-03
   4    9.997       8.887       7.776       6.666       5.555       4.445       3.335       2.224       1.114      3.3313E-03
   5    9.997       8.887       7.776       6.666       5.555       4.445       3.335       2.224       1.114      3.3313E-03
   6    9.997       8.887       7.776       6.666       5.555       4.445       3.335       2.224       1.114      3.3313E-03
   7    9.997       8.887       7.776       6.666       5.555       4.445       3.335       2.224       1.114      3.3313E-03
   8    9.997       8.887       7.776       6.666       5.555       4.445       3.335       2.224       1.114      3.3313E-03
   9    9.997       8.887       7.776       6.666       5.555       4.445       3.335       2.224       1.114      3.3313E-03
  10    9.997       8.887       7.776       6.666       5.555       4.445       3.335       2.224       1.114      3.3313E-03
1
              HEAD IN LAYER   4 AT END OF TIME STEP  98 IN STRESS PERIOD    3
  ---------------------------------------------------------------------------

            1           2           3           4           5           6           7           8           9          10
 ........................................................................................................................
   1    9.997       8.887       7.776       6.666       5.555       4.445       3.335       2.224       1.114      3.3313E-03
   2    9.997       8.887       7.776       6.666       5.555       4.445       3.335       2.224       1.114      3.3313E-03
   3    9.997       8.887       7.776       6.666       5.555       4.445       3.335       2.224       1.114      3.3313E-03
   4    9.997       8.887       7.776       6.666       5.555       4.445       3.335       2.224       1.114      3.3313E-03
   5    9.997       8.887       7.776       6.666       5.555       4.445       3.335       2.224       1.114      3.3313E-03
   6    9.997       8.887       7.776       6.666       5.555       4.445       3.335       2.224       1.114      3.3313E-03
   7    9.997       8.887       7.776       6.666       5.555       4.445       3.335       2.224       1.114      3.3313E-03
   8    9.997       8.887       7.776       6.666       5.555       4.445       3.335       2.224       1.114      3.3313E-03
   9    9.997       8.887       7.776       6.666       5.555       4.445       3.335       2.224       1.114      3.3313E-03
  10    9.997       8.887       7.776       6.666       5.555       4.445       3.335       2.224       1.114      3.3313E-03

 HEAD WILL BE SAVED ON UNIT   51 AT END OF TIME STEP   98, STRESS PERIOD    3

 DRAWDOWN WILL BE SAVED ON UNIT   52 AT END OF TIME STEP   98, STRESS PERIOD    3
1
  VOLUMETRIC BUDGET FOR ENTIRE MODEL AT END OF TIME STEP   98, STRESS PERIOD   3
  ------------------------------------------------------------------------------

     CUMULATIVE VOLUMES      L**3       RATES FOR THIS TIME STEP      L**3/T
     ------------------                 ------------------------

           IN:                                      IN:
           ---                                      ---
             STORAGE =       1.0477E-08               STORAGE =           0.0000
       CONSTANT HEAD =           0.0000         CONSTANT HEAD =           0.0000
               WELLS =           0.0000                 WELLS =           0.0000
     HEAD DEP BOUNDS =      132596.1250       HEAD DEP BOUNDS =         666.3123

            TOTAL IN =      132596.1250              TOTAL IN =         666.3123

          OUT:                                     OUT:
          ----                                     ----
             STORAGE =       5.2387E-08               STORAGE =           0.0000
       CONSTANT HEAD =           0.0000         CONSTANT HEAD =           0.0000
               WELLS =           0.0000                 WELLS =           0.0000
     HEAD DEP BOUNDS =      132585.4219       HEAD DEP BOUNDS =         666.2595

           TOTAL OUT =      132585.4219             TOTAL OUT =         666.2595

            IN - OUT =          10.7031              IN - OUT =       5.2795E-02

 PERCENT DISCREPANCY =           0.01     PERCENT DISCREPANCY =           0.01






         TIME SUMMARY AT END OF TIME STEP   98 IN STRESS PERIOD    3
                    SECONDS     MINUTES      HOURS       DAYS        YEARS
                    -----------------------------------------------------------
   TIME STEP LENGTH  86400.      1440.0      24.000      1.0000     2.73785E-03
 STRESS PERIOD TIME 8.46720E+06 1.41120E+05  2352.0      98.000     0.26831    
         TOTAL TIME 1.71936E+07 2.86560E+05  4776.0      199.00     0.54483    
1
 
 SOLVING FOR HEAD 

 OUTPUT CONTROL FOR STRESS PERIOD    3   TIME STEP   99
    SAVE HEAD FOR ALL LAYERS
    SAVE DRAWDOWN FOR ALL LAYERS
    SAVE BUDGET
    PRINT HEAD FOR ALL LAYERS
    PRINT BUDGET
 UBDSV1 SAVING "         STORAGE" ON UNIT  53 AT TIME STEP 99, STRESS PERIOD   3
 UBDSV2 SAVING "   CONSTANT HEAD" ON UNIT  53 AT TIME STEP 99, STRESS PERIOD   3
 UBDSV1 SAVING "FLOW RIGHT FACE " ON UNIT  53 AT TIME STEP 99, STRESS PERIOD   3
 UBDSV1 SAVING "FLOW FRONT FACE " ON UNIT  53 AT TIME STEP 99, STRESS PERIOD   3
 UBDSV1 SAVING "FLOW LOWER FACE " ON UNIT  53 AT TIME STEP 99, STRESS PERIOD   3
1
              HEAD IN LAYER   1 AT END OF TIME STEP  99 IN STRESS PERIOD    3
  ---------------------------------------------------------------------------

            1           2           3           4           5           6           7           8           9          10
 ........................................................................................................................
   1    9.997       8.887       7.776       6.666       5.555       4.445       3.335       2.224       1.114      3.3313E-03
   2    9.997       8.887       7.776       6.666       5.555       4.445       3.335       2.224       1.114      3.3313E-03
   3    9.997       8.887       7.776       6.666       5.555       4.445       3.335       2.224       1.114      3.3313E-03
   4    9.997       8.887       7.776       6.666       5.555       4.445       3.335       2.224       1.114      3.3313E-03
   5    9.997       8.887       7.776       6.666       5.555       4.445       3.335       2.224       1.114      3.3313E-03
   6    9.997       8.887       7.776       6.666       5.555       4.445       3.335       2.224       1.114      3.3313E-03
   7    9.997       8.887       7.776       6.666       5.555       4.445       3.335       2.224       1.114      3.3313E-03
   8    9.997       8.887       7.776       6.666       5.555       4.445       3.335       2.224       1.114      3.3313E-03
   9    9.997       8.887       7.776       6.666       5.555       4.445       3.335       2.224       1.114      3.3313E-03
  10    9.997       8.887       7.776       6.666       5.555       4.445       3.335       2.224       1.114      3.3313E-03
1
              HEAD IN LAYER   2 AT END OF TIME STEP  99 IN STRESS PERIOD    3
  ---------------------------------------------------------------------------

            1           2           3           4           5           6           7           8           9          10
 ........................................................................................................................
   1    9.997       8.887       7.776       6.666       5.555       4.445       3.335       2.224       1.114      3.3313E-03
   2    9.997       8.887       7.776       6.666       5.555       4.445       3.335       2.224       1.114      3.3313E-03
   3    9.997       8.887       7.776       6.666       5.555       4.445       3.335       2.224       1.114      3.3313E-03
   4    9.997       8.887       7.776       6.666       5.555       4.445       3.335       2.224       1.114      3.3313E-03
   5    9.997       8.887       7.776       6.666       5.555       4.445       3.335       2.224       1.114      3.3313E-03
   6    9.997       8.887       7.776       6.666       5.555       4.445       3.335       2.224       1.114      3.3313E-03
   7    9.997       8.887       7.776       6.666       5.555       4.445       3.335       2.224       1.114      3.3313E-03
   8    9.997       8.887       7.776       6.666       5.555       4.445       3.335       2.224       1.114      3.3313E-03
   9    9.997       8.887       7.776       6.666       5.555       4.445       3.335       2.224       1.114      3.3313E-03
  10    9.997       8.887       7.776       6.666       5.555       4.445       3.335       2.224       1.114      3.3313E-03
1
              HEAD IN LAYER   3 AT END OF TIME STEP  99 IN STRESS PERIOD    3
  ---------------------------------------------------------------------------

            1           2           3           4           5           6           7           8           9          10
 ........................................................................................................................
   1    9.997       8.887       7.776       6.666       5.555       4.445       3.335       2.224       1.114      3.3313E-03
   2    9.997       8.887       7.776       6.666       5.555       4.445       3.335       2.224       1.114      3.3313E-03
   3    9.997       8.887       7.776       6.666       5.555       4.445       3.335       2.224       1.114      3.3313E-03
   4    9.997       8.887       7.776       6.666       5.555       4.445       3.335       2.224       1.114      3.3313E-03
   5    9.997       8.887       7.776       6.666       5.555       4.445       3.335       2.224       1.114      3.3313E-03
   6    9.997       8.887       7.776       6.666       5.555       4.445       3.335       2.224       1.114      3.3313E-03
   7    9.997       8.887       7.776       6.666       5.555       4.445       3.335       2.224       1.114      3.3313E-03
   8    9.997       8.887       7.776       6.666       5.555       4.445       3.335       2.224       1.114      3.3313E-03
   9    9.997       8.887       7.776       6.666       5.555       4.445       3.335       2.224       1.114      3.3313E-03
  10    9.997       8.887       7.776       6.666       5.555       4.445       3.335       2.224       1.114      3.3313E-03
1
              HEAD IN LAYER   4 AT END OF TIME STEP  99 IN STRESS PERIOD    3
  ---------------------------------------------------------------------------

            1           2           3           4           5           6           7           8           9          10
 ........................................................................................................................
   1    9.997       8.887       7.776       6.666       5.555       4.445       3.335       2.224       1.114      3.3313E-03
   2    9.997       8.887       7.776       6.666       5.555       4.445       3.335       2.224       1.114      3.3313E-03
   3    9.997       8.887       7.776       6.666       5.555       4.445       3.335       2.224       1.114      3.3313E-03
   4    9.997       8.887       7.776       6.666       5.555       4.445       3.335       2.224       1.114      3.3313E-03
   5    9.997       8.887       7.776       6.666       5.555       4.445       3.335       2.224       1.114      3.3313E-03
   6    9.997       8.887       7.776       6.666       5.555       4.445       3.335       2.224       1.114      3.3313E-03
   7    9.997       8.887       7.776       6.666       5.555       4.445       3.335       2.224       1.114      3.3313E-03
   8    9.997       8.887       7.776       6.666       5.555       4.445       3.335       2.224       1.114      3.3313E-03
   9    9.997       8.887       7.776       6.666       5.555       4.445       3.335       2.224       1.114      3.3313E-03
  10    9.997       8.887       7.776       6.666       5.555       4.445       3.335       2.224       1.114      3.3313E-03

 HEAD WILL BE SAVED ON UNIT   51 AT END OF TIME STEP   99, STRESS PERIOD    3

 DRAWDOWN WILL BE SAVED ON UNIT   52 AT END OF TIME STEP   99, STRESS PERIOD    3
1
  VOLUMETRIC BUDGET FOR ENTIRE MODEL AT END OF TIME STEP   99, STRESS PERIOD   3
  ------------------------------------------------------------------------------

     CUMULATIVE VOLUMES      L**3       RATES FOR THIS TIME STEP      L**3/T
     ------------------                 ------------------------

           IN:                                      IN:
           ---                                      ---
             STORAGE =       1.0477E-08               STORAGE =           0.0000
       CONSTANT HEAD =           0.0000         CONSTANT HEAD =           0.0000
               WELLS =           0.0000                 WELLS =           0.0000
     HEAD DEP BOUNDS =      133262.4375       HEAD DEP BOUNDS =         666.3123

            TOTAL IN =      133262.4375              TOTAL IN =         666.3123

          OUT:                                     OUT:
          ----                                     ----
             STORAGE =       5.2387E-08               STORAGE =           0.0000
       CONSTANT HEAD =           0.0000         CONSTANT HEAD =           0.0000
               WELLS =           0.0000                 WELLS =           0.0000
     HEAD DEP BOUNDS =      133251.6875       HEAD DEP BOUNDS =         666.2595

           TOTAL OUT =      133251.6875             TOTAL OUT =         666.2595

            IN - OUT =          10.7500              IN - OUT =       5.2795E-02

 PERCENT DISCREPANCY =           0.01     PERCENT DISCREPANCY =           0.01






         TIME SUMMARY AT END OF TIME STEP   99 IN STRESS PERIOD    3
                    SECONDS     MINUTES      HOURS       DAYS        YEARS
                    -----------------------------------------------------------
   TIME STEP LENGTH  86400.      1440.0      24.000      1.0000     2.73785E-03
 STRESS PERIOD TIME 8.55360E+06 1.42560E+05  2376.0      99.000     0.27105    
         TOTAL TIME 1.72800E+07 2.88000E+05  4800.0      200.00     0.54757    
1
 
 SOLVING FOR HEAD 

 OUTPUT CONTROL FOR STRESS PERIOD    3   TIME STEP  100
    SAVE HEAD FOR ALL LAYERS
    SAVE DRAWDOWN FOR ALL LAYERS
    SAVE BUDGET
    PRINT HEAD FOR ALL LAYERS
    PRINT BUDGET
 UBDSV1 SAVING "         STORAGE" ON UNIT  53 AT TIME STEP100, STRESS PERIOD   3
 UBDSV2 SAVING "   CONSTANT HEAD" ON UNIT  53 AT TIME STEP100, STRESS PERIOD   3
 UBDSV1 SAVING "FLOW RIGHT FACE " ON UNIT  53 AT TIME STEP100, STRESS PERIOD   3
 UBDSV1 SAVING "FLOW FRONT FACE " ON UNIT  53 AT TIME STEP100, STRESS PERIOD   3
 UBDSV1 SAVING "FLOW LOWER FACE " ON UNIT  53 AT TIME STEP100, STRESS PERIOD   3
1
              HEAD IN LAYER   1 AT END OF TIME STEP 100 IN STRESS PERIOD    3
  ---------------------------------------------------------------------------

            1           2           3           4           5           6           7           8           9          10
 ........................................................................................................................
   1    9.997       8.887       7.776       6.666       5.555       4.445       3.335       2.224       1.114      3.3313E-03
   2    9.997       8.887       7.776       6.666       5.555       4.445       3.335       2.224       1.114      3.3313E-03
   3    9.997       8.887       7.776       6.666       5.555       4.445       3.335       2.224       1.114      3.3313E-03
   4    9.997       8.887       7.776       6.666       5.555       4.445       3.335       2.224       1.114      3.3313E-03
   5    9.997       8.887       7.776       6.666       5.555       4.445       3.335       2.224       1.114      3.3313E-03
   6    9.997       8.887       7.776       6.666       5.555       4.445       3.335       2.224       1.114      3.3313E-03
   7    9.997       8.887       7.776       6.666       5.555       4.445       3.335       2.224       1.114      3.3313E-03
   8    9.997       8.887       7.776       6.666       5.555       4.445       3.335       2.224       1.114      3.3313E-03
   9    9.997       8.887       7.776       6.666       5.555       4.445       3.335       2.224       1.114      3.3313E-03
  10    9.997       8.887       7.776       6.666       5.555       4.445       3.335       2.224       1.114      3.3313E-03
1
              HEAD IN LAYER   2 AT END OF TIME STEP 100 IN STRESS PERIOD    3
  ---------------------------------------------------------------------------

            1           2           3           4           5           6           7           8           9          10
 ........................................................................................................................
   1    9.997       8.887       7.776       6.666       5.555       4.445       3.335       2.224       1.114      3.3313E-03
   2    9.997       8.887       7.776       6.666       5.555       4.445       3.335       2.224       1.114      3.3313E-03
   3    9.997       8.887       7.776       6.666       5.555       4.445       3.335       2.224       1.114      3.3313E-03
   4    9.997       8.887       7.776       6.666       5.555       4.445       3.335       2.224       1.114      3.3313E-03
   5    9.997       8.887       7.776       6.666       5.555       4.445       3.335       2.224       1.114      3.3313E-03
   6    9.997       8.887       7.776       6.666       5.555       4.445       3.335       2.224       1.114      3.3313E-03
   7    9.997       8.887       7.776       6.666       5.555       4.445       3.335       2.224       1.114      3.3313E-03
   8    9.997       8.887       7.776       6.666       5.555       4.445       3.335       2.224       1.114      3.3313E-03
   9    9.997       8.887       7.776       6.666       5.555       4.445       3.335       2.224       1.114      3.3313E-03
  10    9.997       8.887       7.776       6.666       5.555       4.445       3.335       2.224       1.114      3.3313E-03
1
              HEAD IN LAYER   3 AT END OF TIME STEP 100 IN STRESS PERIOD    3
  ---------------------------------------------------------------------------

            1           2           3           4           5           6           7           8           9          10
 ........................................................................................................................
   1    9.997       8.887       7.776       6.666       5.555       4.445       3.335       2.224       1.114      3.3313E-03
   2    9.997       8.887       7.776       6.666       5.555       4.445       3.335       2.224       1.114      3.3313E-03
   3    9.997       8.887       7.776       6.666       5.555       4.445       3.335       2.224       1.114      3.3313E-03
   4    9.997       8.887       7.776       6.666       5.555       4.445       3.335       2.224       1.114      3.3313E-03
   5    9.997       8.887       7.776       6.666       5.555       4.445       3.335       2.224       1.114      3.3313E-03
   6    9.997       8.887       7.776       6.666       5.555       4.445       3.335       2.224       1.114      3.3313E-03
   7    9.997       8.887       7.776       6.666       5.555       4.445       3.335       2.224       1.114      3.3313E-03
   8    9.997       8.887       7.776       6.666       5.555       4.445       3.335       2.224       1.114      3.3313E-03
   9    9.997       8.887       7.776       6.666       5.555       4.445       3.335       2.224       1.114      3.3313E-03
  10    9.997       8.887       7.776       6.666       5.555       4.445       3.335       2.224       1.114      3.3313E-03
1
              HEAD IN LAYER   4 AT END OF TIME STEP 100 IN STRESS PERIOD    3
  ---------------------------------------------------------------------------

            1           2           3           4           5           6           7           8           9          10
 ........................................................................................................................
   1    9.997       8.887       7.776       6.666       5.555       4.445       3.335       2.224       1.114      3.3313E-03
   2    9.997       8.887       7.776       6.666       5.555       4.445       3.335       2.224       1.114      3.3313E-03
   3    9.997       8.887       7.776       6.666       5.555       4.445       3.335       2.224       1.114      3.3313E-03
   4    9.997       8.887       7.776       6.666       5.555       4.445       3.335       2.224       1.114      3.3313E-03
   5    9.997       8.887       7.776       6.666       5.555       4.445       3.335       2.224       1.114      3.3313E-03
   6    9.997       8.887       7.776       6.666       5.555       4.445       3.335       2.224       1.114      3.3313E-03
   7    9.997       8.887       7.776       6.666       5.555       4.445       3.335       2.224       1.114      3.3313E-03
   8    9.997       8.887       7.776       6.666       5.555       4.445       3.335       2.224       1.114      3.3313E-03
   9    9.997       8.887       7.776       6.666       5.555       4.445       3.335       2.224       1.114      3.3313E-03
  10    9.997       8.887       7.776       6.666       5.555       4.445       3.335       2.224       1.114      3.3313E-03

 HEAD WILL BE SAVED ON UNIT   51 AT END OF TIME STEP  100, STRESS PERIOD    3

 DRAWDOWN WILL BE SAVED ON UNIT   52 AT END OF TIME STEP  100, STRESS PERIOD    3
1
  VOLUMETRIC BUDGET FOR ENTIRE MODEL AT END OF TIME STEP  100, STRESS PERIOD   3
  ------------------------------------------------------------------------------

     CUMULATIVE VOLUMES      L**3       RATES FOR THIS TIME STEP      L**3/T
     ------------------                 ------------------------

           IN:                                      IN:
           ---                                      ---
             STORAGE =       1.0477E-08               STORAGE =           0.0000
       CONSTANT HEAD =           0.0000         CONSTANT HEAD =           0.0000
               WELLS =           0.0000                 WELLS =           0.0000
     HEAD DEP BOUNDS =      133928.7500       HEAD DEP BOUNDS =         666.3123

            TOTAL IN =      133928.7500              TOTAL IN =         666.3123

          OUT:                                     OUT:
          ----                                     ----
             STORAGE =       5.2387E-08               STORAGE =           0.0000
       CONSTANT HEAD =           0.0000         CONSTANT HEAD =           0.0000
               WELLS =           0.0000                 WELLS =           0.0000
     HEAD DEP BOUNDS =      133917.9531       HEAD DEP BOUNDS =         666.2595

           TOTAL OUT =      133917.9531             TOTAL OUT =         666.2595

            IN - OUT =          10.7969              IN - OUT =       5.2795E-02

 PERCENT DISCREPANCY =           0.01     PERCENT DISCREPANCY =           0.01






         TIME SUMMARY AT END OF TIME STEP  100 IN STRESS PERIOD    3
                    SECONDS     MINUTES      HOURS       DAYS        YEARS
                    -----------------------------------------------------------
   TIME STEP LENGTH  86400.      1440.0      24.000      1.0000     2.73785E-03
 STRESS PERIOD TIME 8.64000E+06 1.44000E+05  2400.0      100.00     0.27379    
         TOTAL TIME 1.73664E+07 2.89440E+05  4824.0      201.00     0.55031    
1

 Run end date and time (yyyy/mm/dd hh:mm:ss): 2021/10/02 13:05:11
 Elapsed run time:  0.262 Seconds

