                                  MODFLOW-2005     
      U.S. GEOLOGICAL SURVEY MODULAR FINITE-DIFFERENCE GROUND-WATER FLOW MODEL
                            VERSION 1.12.00 2/3/2017

 LIST FILE: Test01.list
                         UNIT    2

 OPENING Test01.dis
 FILE TYPE:DIS   UNIT   11   STATUS:OLD    
 FORMAT:FORMATTED              ACCESS:SEQUENTIAL          

 OPENING Test01.bas
 FILE TYPE:BAS6   UNIT   13   STATUS:OLD    
 FORMAT:FORMATTED              ACCESS:SEQUENTIAL          

 OPENING Test01.lpf
 FILE TYPE:LPF   UNIT   15   STATUS:OLD    
 FORMAT:FORMATTED              ACCESS:SEQUENTIAL          

 OPENING Test01.pcg
 FILE TYPE:PCG   UNIT   27   STATUS:OLD    
 FORMAT:FORMATTED              ACCESS:SEQUENTIAL          

 OPENING Test01.ghb
 FILE TYPE:GHB   UNIT   23   STATUS:OLD    
 FORMAT:FORMATTED              ACCESS:SEQUENTIAL          

 OPENING Test01.wel
 FILE TYPE:WEL   UNIT   20   STATUS:OLD    
 FORMAT:FORMATTED              ACCESS:SEQUENTIAL          

 OPENING Test01.oc
 FILE TYPE:OC   UNIT   14   STATUS:OLD    
 FORMAT:FORMATTED              ACCESS:SEQUENTIAL          

 OPENING Test01.cbc
 FILE TYPE:DATA(BINARY)   UNIT   53   STATUS:REPLACE
 FORMAT:BINARY                 ACCESS:SEQUENTIAL          

 OPENING Test01.hds
 FILE TYPE:DATA(BINARY)   UNIT   51   STATUS:REPLACE
 FORMAT:BINARY                 ACCESS:SEQUENTIAL          

 OPENING Test01.ddn
 FILE TYPE:DATA(BINARY)   UNIT   52   STATUS:REPLACE
 FORMAT:BINARY                 ACCESS:SEQUENTIAL          

 BAS -- BASIC PACKAGE, VERSION 7, 5/2/2005 INPUT READ FROM UNIT   13
 
 MODFLOW was compiled using mixed precision
 Precision of REAL variables:           6
 Precision of DOUBLE PRECISION variables:          15

 DISCRETIZATION INPUT DATA READ FROM UNIT   11
 # DIS package for  MODFLOW-2005, generated by Flopy.
    5 LAYERS         5 ROWS         5 COLUMNS
    3 STRESS PERIOD(S) IN SIMULATION
 MODEL TIME UNIT IS DAYS
 MODEL LENGTH UNIT IS METERS
  Confining bed flag for each layer:
   0   0   0   0   0

                     DELR =   200.000    

                     DELC =   200.000    

 TOP ELEVATION OF LAYER 1 =   10.0000    

   MODEL LAYER BOTTOM EL. =  -2.00000     FOR LAYER   1

   MODEL LAYER BOTTOM EL. =  -14.0000     FOR LAYER   2

   MODEL LAYER BOTTOM EL. =  -26.0000     FOR LAYER   3

   MODEL LAYER BOTTOM EL. =  -38.0000     FOR LAYER   4

   MODEL LAYER BOTTOM EL. =  -50.0000     FOR LAYER   5


 STRESS PERIOD     LENGTH       TIME STEPS     MULTIPLIER FOR DELT    SS FLAG
 ----------------------------------------------------------------------------
        1         1.000000          1                    1.000         SS
        2         100.0000        100                    1.000         TR
        3         100.0000        100                    1.000         TR

 COMBINED STEADY-STATE AND TRANSIENT SIMULATION



 
 # BAS6 package for  MODFLOW-2005, generated by Flopy.                           
 THE FREE FORMAT OPTION HAS BEEN SELECTED



                     BOUNDARY ARRAY FOR LAYER   1
 READING ON UNIT   13 WITH FORMAT: (5I10)              



                     BOUNDARY ARRAY FOR LAYER   2
 READING ON UNIT   13 WITH FORMAT: (5I10)              



                     BOUNDARY ARRAY FOR LAYER   3
 READING ON UNIT   13 WITH FORMAT: (5I10)              



                     BOUNDARY ARRAY FOR LAYER   4
 READING ON UNIT   13 WITH FORMAT: (5I10)              



                     BOUNDARY ARRAY FOR LAYER   5
 READING ON UNIT   13 WITH FORMAT: (5I10)              

 AQUIFER HEAD WILL BE SET TO  -999.99     AT ALL NO-FLOW NODES (IBOUND=0).



                       INITIAL HEAD FOR LAYER   1
 READING ON UNIT   13 WITH FORMAT: (5E15.6)            



                       INITIAL HEAD FOR LAYER   2
 READING ON UNIT   13 WITH FORMAT: (5E15.6)            



                       INITIAL HEAD FOR LAYER   3
 READING ON UNIT   13 WITH FORMAT: (5E15.6)            



                       INITIAL HEAD FOR LAYER   4
 READING ON UNIT   13 WITH FORMAT: (5E15.6)            



                       INITIAL HEAD FOR LAYER   5
 READING ON UNIT   13 WITH FORMAT: (5E15.6)            
 # OC package for  MODFLOW-2005, generated by Flopy.

 OUTPUT CONTROL IS SPECIFIED ONLY AT TIME STEPS FOR WHICH OUTPUT IS DESIRED
 COMPACT CELL-BY-CELL BUDGET FILES WILL BE WRITTEN
 AUXILIARY DATA WILL BE SAVED IN CELL-BY-CELL BUDGET FILES
 HEAD PRINT FORMAT CODE IS   0    DRAWDOWN PRINT FORMAT CODE IS   0
 HEADS WILL BE SAVED ON UNIT   51    DRAWDOWNS WILL BE SAVED ON UNIT   52

 LPF -- LAYER-PROPERTY FLOW PACKAGE, VERSION 7, 5/2/2005
         INPUT READ FROM UNIT   15
 # LPF package for  MODFLOW-2005, generated by Flopy.
 CELL-BY-CELL FLOWS WILL BE SAVED ON UNIT   53
 HEAD AT CELLS THAT CONVERT TO DRY= -1.00000E+30
 No named parameters

   LAYER FLAGS:
 LAYER       LAYTYP        LAYAVG         CHANI        LAYVKA        LAYWET
 ---------------------------------------------------------------------------
    1             0             0     1.000E+00             0             0
    2             0             0     1.000E+00             0             0
    3             0             0     1.000E+00             0             0
    4             0             0     1.000E+00             0             0
    5             0             0     1.000E+00             0             0

   INTERPRETATION OF LAYER FLAGS:
                        INTERBLOCK     HORIZONTAL    DATA IN
         LAYER TYPE   TRANSMISSIVITY   ANISOTROPY   ARRAY VKA   WETTABILITY
 LAYER      (LAYTYP)      (LAYAVG)       (CHANI)      (LAYVKA)      (LAYWET)
 ---------------------------------------------------------------------------
    1      CONFINED      HARMONIC     1.000E+00    VERTICAL K  NON-WETTABLE
    2      CONFINED      HARMONIC     1.000E+00    VERTICAL K  NON-WETTABLE
    3      CONFINED      HARMONIC     1.000E+00    VERTICAL K  NON-WETTABLE
    4      CONFINED      HARMONIC     1.000E+00    VERTICAL K  NON-WETTABLE
    5      CONFINED      HARMONIC     1.000E+00    VERTICAL K  NON-WETTABLE

 WETTING CAPABILITY IS NOT ACTIVE IN ANY LAYER

    HYD. COND. ALONG ROWS =   1.00000     FOR LAYER   1

      VERTICAL HYD. COND. =   1.00000     FOR LAYER   1

         SPECIFIC STORAGE =  1.000000E-04 FOR LAYER   1

    HYD. COND. ALONG ROWS =   1.00000     FOR LAYER   2

      VERTICAL HYD. COND. =   1.00000     FOR LAYER   2

         SPECIFIC STORAGE =  1.000000E-04 FOR LAYER   2

    HYD. COND. ALONG ROWS =   1.00000     FOR LAYER   3

      VERTICAL HYD. COND. =   1.00000     FOR LAYER   3

         SPECIFIC STORAGE =  1.000000E-04 FOR LAYER   3

    HYD. COND. ALONG ROWS =   1.00000     FOR LAYER   4

      VERTICAL HYD. COND. =   1.00000     FOR LAYER   4

         SPECIFIC STORAGE =  1.000000E-04 FOR LAYER   4

    HYD. COND. ALONG ROWS =   1.00000     FOR LAYER   5

      VERTICAL HYD. COND. =   1.00000     FOR LAYER   5

         SPECIFIC STORAGE =  1.000000E-04 FOR LAYER   5

 WEL -- WELL PACKAGE, VERSION 7, 5/2/2005 INPUT READ FROM UNIT   20
 # WEL package for  MODFLOW-2005, generated by Flopy.
 No named parameters
 MAXIMUM OF      1 ACTIVE WELLS AT ONE TIME


     0 Well parameters

 GHB -- GENERAL-HEAD BOUNDARY PACKAGE, VERSION 7, 5/2/2005
         INPUT READ FROM UNIT   23
 # GHB package for  MODFLOW-2005, generated by Flopy.
 No named parameters
 MAXIMUM OF     50 ACTIVE GHB CELLS AT ONE TIME


     0 GHB parameters

 PCG -- CONJUGATE-GRADIENT SOLUTION PACKAGE, VERSION 7, 5/2/2005
 # PCG package for  MODFLOW-2005, generated by Flopy.
 MAXIMUM OF     50 CALLS OF SOLUTION ROUTINE
 MAXIMUM OF     30 INTERNAL ITERATIONS PER CALL TO SOLUTION ROUTINE
 MATRIX PRECONDITIONING TYPE :    1



                                    SOLUTION BY THE CONJUGATE-GRADIENT METHOD
                                   -------------------------------------------
                    MAXIMUM NUMBER OF CALLS TO PCG ROUTINE =       50
                        MAXIMUM ITERATIONS PER CALL TO PCG =       30
                               MATRIX PRECONDITIONING TYPE =        1
        RELAXATION FACTOR (ONLY USED WITH PRECOND. TYPE 1) =    0.10000E+01
 PARAMETER OF POLYNOMIAL PRECOND. = 2 (2) OR IS CALCULATED :        0
                         HEAD CHANGE CRITERION FOR CLOSURE =    0.10000E-04
                     RESIDUAL CHANGE CRITERION FOR CLOSURE =    0.10000E-04
            PCG HEAD AND RESIDUAL CHANGE PRINTOUT INTERVAL =      999
     PRINTING FROM SOLVER IS LIMITED(1) OR SUPPRESSED (>1) =        3
                            STEADY-STATE DAMPING PARAMETER =    0.10000E+01
                               TRANSIENT DAMPING PARAMETER =    0.10000E+01
1
                            STRESS PERIOD NO.    1, LENGTH =   1.000000    
                            -----------------------------------------------

                              NUMBER OF TIME STEPS =     1

                               MULTIPLIER FOR DELT =     1.000

                            INITIAL TIME STEP SIZE =   1.000000    

 WELL NO.  LAYER   ROW   COL   STRESS RATE         
 --------------------------------------------------
      1      1      2      2       0.000    

      1 WELL 

 BOUND. NO. LAYER   ROW   COL     STAGE      CONDUCTANCE         
 ----------------------------------------------------------------
      1      1      1      1       5.000          0.1100E+05
      2      1      1      5       0.000          0.1000E+05
      3      1      2      1       5.000          0.1100E+05
      4      1      2      5       0.000          0.1000E+05
      5      1      3      1       5.000          0.1100E+05
      6      1      3      5       0.000          0.1000E+05
      7      1      4      1       5.000          0.1100E+05
      8      1      4      5       0.000          0.1000E+05
      9      1      5      1       5.000          0.1100E+05
     10      1      5      5       0.000          0.1000E+05
     11      2      1      1       5.000          0.1100E+05
     12      2      1      5       0.000          0.1000E+05
     13      2      2      1       5.000          0.1100E+05
     14      2      2      5       0.000          0.1000E+05
     15      2      3      1       5.000          0.1100E+05
     16      2      3      5       0.000          0.1000E+05
     17      2      4      1       5.000          0.1100E+05
     18      2      4      5       0.000          0.1000E+05
     19      2      5      1       5.000          0.1100E+05
     20      2      5      5       0.000          0.1000E+05
     21      3      1      1       5.000          0.1100E+05
     22      3      1      5       0.000          0.1000E+05
     23      3      2      1       5.000          0.1100E+05
     24      3      2      5       0.000          0.1000E+05
     25      3      3      1       5.000          0.1100E+05
     26      3      3      5       0.000          0.1000E+05
     27      3      4      1       5.000          0.1100E+05
     28      3      4      5       0.000          0.1000E+05
     29      3      5      1       5.000          0.1100E+05
     30      3      5      5       0.000          0.1000E+05
     31      4      1      1       5.000          0.1100E+05
     32      4      1      5       0.000          0.1000E+05
     33      4      2      1       5.000          0.1100E+05
     34      4      2      5       0.000          0.1000E+05
     35      4      3      1       5.000          0.1100E+05
     36      4      3      5       0.000          0.1000E+05
     37      4      4      1       5.000          0.1100E+05
     38      4      4      5       0.000          0.1000E+05
     39      4      5      1       5.000          0.1100E+05
     40      4      5      5       0.000          0.1000E+05
     41      5      1      1       5.000          0.1100E+05
     42      5      1      5       0.000          0.1000E+05
     43      5      2      1       5.000          0.1100E+05
     44      5      2      5       0.000          0.1000E+05
     45      5      3      1       5.000          0.1100E+05
     46      5      3      5       0.000          0.1000E+05
     47      5      4      1       5.000          0.1100E+05
     48      5      4      5       0.000          0.1000E+05
     49      5      5      1       5.000          0.1100E+05
     50      5      5      5       0.000          0.1000E+05

     50 GHB CELLS
 
 SOLVING FOR HEAD 

 OUTPUT CONTROL FOR STRESS PERIOD    1   TIME STEP    1
    SAVE HEAD FOR ALL LAYERS
    SAVE DRAWDOWN FOR ALL LAYERS
    SAVE BUDGET
    PRINT HEAD FOR ALL LAYERS
    PRINT BUDGET
 UBDSV2 SAVING "   CONSTANT HEAD" ON UNIT  53 AT TIME STEP  1, STRESS PERIOD   1
 UBDSV1 SAVING "FLOW RIGHT FACE " ON UNIT  53 AT TIME STEP  1, STRESS PERIOD   1
 UBDSV1 SAVING "FLOW FRONT FACE " ON UNIT  53 AT TIME STEP  1, STRESS PERIOD   1
 UBDSV1 SAVING "FLOW LOWER FACE " ON UNIT  53 AT TIME STEP  1, STRESS PERIOD   1
1
              HEAD IN LAYER   1 AT END OF TIME STEP   1 IN STRESS PERIOD    1
  ---------------------------------------------------------------------------

            1           2           3           4           5
 ............................................................
   1    4.999       3.749       2.500       1.251      1.4991E-03
   2    4.999       3.749       2.500       1.251      1.4991E-03
   3    4.999       3.749       2.500       1.251      1.4991E-03
   4    4.999       3.749       2.500       1.251      1.4991E-03
   5    4.999       3.749       2.500       1.251      1.4991E-03
1
              HEAD IN LAYER   2 AT END OF TIME STEP   1 IN STRESS PERIOD    1
  ---------------------------------------------------------------------------

            1           2           3           4           5
 ............................................................
   1    4.999       3.749       2.500       1.251      1.4991E-03
   2    4.999       3.749       2.500       1.251      1.4991E-03
   3    4.999       3.749       2.500       1.251      1.4991E-03
   4    4.999       3.749       2.500       1.251      1.4991E-03
   5    4.999       3.749       2.500       1.251      1.4991E-03
1
              HEAD IN LAYER   3 AT END OF TIME STEP   1 IN STRESS PERIOD    1
  ---------------------------------------------------------------------------

            1           2           3           4           5
 ............................................................
   1    4.999       3.749       2.500       1.251      1.4991E-03
   2    4.999       3.749       2.500       1.251      1.4991E-03
   3    4.999       3.749       2.500       1.251      1.4991E-03
   4    4.999       3.749       2.500       1.251      1.4991E-03
   5    4.999       3.749       2.500       1.251      1.4991E-03
1
              HEAD IN LAYER   4 AT END OF TIME STEP   1 IN STRESS PERIOD    1
  ---------------------------------------------------------------------------

            1           2           3           4           5
 ............................................................
   1    4.999       3.749       2.500       1.251      1.4991E-03
   2    4.999       3.749       2.500       1.251      1.4991E-03
   3    4.999       3.749       2.500       1.251      1.4991E-03
   4    4.999       3.749       2.500       1.251      1.4991E-03
   5    4.999       3.749       2.500       1.251      1.4991E-03
1
              HEAD IN LAYER   5 AT END OF TIME STEP   1 IN STRESS PERIOD    1
  ---------------------------------------------------------------------------

            1           2           3           4           5
 ............................................................
   1    4.999       3.749       2.500       1.251      1.4991E-03
   2    4.999       3.749       2.500       1.251      1.4991E-03
   3    4.999       3.749       2.500       1.251      1.4991E-03
   4    4.999       3.749       2.500       1.251      1.4991E-03
   5    4.999       3.749       2.500       1.251      1.4991E-03

 HEAD WILL BE SAVED ON UNIT   51 AT END OF TIME STEP    1, STRESS PERIOD    1

 DRAWDOWN WILL BE SAVED ON UNIT   52 AT END OF TIME STEP    1, STRESS PERIOD    1
1
  VOLUMETRIC BUDGET FOR ENTIRE MODEL AT END OF TIME STEP    1, STRESS PERIOD   1
  ------------------------------------------------------------------------------

     CUMULATIVE VOLUMES      L**3       RATES FOR THIS TIME STEP      L**3/T
     ------------------                 ------------------------

           IN:                                      IN:
           ---                                      ---
             STORAGE =           0.0000               STORAGE =           0.0000
       CONSTANT HEAD =           0.0000         CONSTANT HEAD =           0.0000
               WELLS =           0.0000                 WELLS =           0.0000
     HEAD DEP BOUNDS =         374.7853       HEAD DEP BOUNDS =         374.7853

            TOTAL IN =         374.7853              TOTAL IN =         374.7853

          OUT:                                     OUT:
          ----                                     ----
             STORAGE =           0.0000               STORAGE =           0.0000
       CONSTANT HEAD =           0.0000         CONSTANT HEAD =           0.0000
               WELLS =           0.0000                 WELLS =           0.0000
     HEAD DEP BOUNDS =         374.7853       HEAD DEP BOUNDS =         374.7853

           TOTAL OUT =         374.7853             TOTAL OUT =         374.7853

            IN - OUT =      -3.0518E-05              IN - OUT =      -3.0518E-05

 PERCENT DISCREPANCY =          -0.00     PERCENT DISCREPANCY =          -0.00






         TIME SUMMARY AT END OF TIME STEP    1 IN STRESS PERIOD    1
                    SECONDS     MINUTES      HOURS       DAYS        YEARS
                    -----------------------------------------------------------
   TIME STEP LENGTH  86400.      1440.0      24.000      1.0000     2.73785E-03
 STRESS PERIOD TIME  86400.      1440.0      24.000      1.0000     2.73785E-03
         TOTAL TIME  86400.      1440.0      24.000      1.0000     2.73785E-03
1
1
                            STRESS PERIOD NO.    2, LENGTH =   100.0000    
                            -----------------------------------------------

                              NUMBER OF TIME STEPS =   100

                               MULTIPLIER FOR DELT =     1.000

                            INITIAL TIME STEP SIZE =   1.000000    

 WELL NO.  LAYER   ROW   COL   STRESS RATE         
 --------------------------------------------------
      1      1      2      2       0.000    

      1 WELL 

 BOUND. NO. LAYER   ROW   COL     STAGE      CONDUCTANCE         
 ----------------------------------------------------------------
      1      1      1      1       10.00          0.1200E+05
      2      1      1      5       0.000          0.1000E+05
      3      1      2      1       10.00          0.1200E+05
      4      1      2      5       0.000          0.1000E+05
      5      1      3      1       10.00          0.1200E+05
      6      1      3      5       0.000          0.1000E+05
      7      1      4      1       10.00          0.1200E+05
      8      1      4      5       0.000          0.1000E+05
      9      1      5      1       10.00          0.1200E+05
     10      1      5      5       0.000          0.1000E+05
     11      2      1      1       10.00          0.1200E+05
     12      2      1      5       0.000          0.1000E+05
     13      2      2      1       10.00          0.1200E+05
     14      2      2      5       0.000          0.1000E+05
     15      2      3      1       10.00          0.1200E+05
     16      2      3      5       0.000          0.1000E+05
     17      2      4      1       10.00          0.1200E+05
     18      2      4      5       0.000          0.1000E+05
     19      2      5      1       10.00          0.1200E+05
     20      2      5      5       0.000          0.1000E+05
     21      3      1      1       10.00          0.1200E+05
     22      3      1      5       0.000          0.1000E+05
     23      3      2      1       10.00          0.1200E+05
     24      3      2      5       0.000          0.1000E+05
     25      3      3      1       10.00          0.1200E+05
     26      3      3      5       0.000          0.1000E+05
     27      3      4      1       10.00          0.1200E+05
     28      3      4      5       0.000          0.1000E+05
     29      3      5      1       10.00          0.1200E+05
     30      3      5      5       0.000          0.1000E+05
     31      4      1      1       10.00          0.1200E+05
     32      4      1      5       0.000          0.1000E+05
     33      4      2      1       10.00          0.1200E+05
     34      4      2      5       0.000          0.1000E+05
     35      4      3      1       10.00          0.1200E+05
     36      4      3      5       0.000          0.1000E+05
     37      4      4      1       10.00          0.1200E+05
     38      4      4      5       0.000          0.1000E+05
     39      4      5      1       10.00          0.1200E+05
     40      4      5      5       0.000          0.1000E+05
     41      5      1      1       10.00          0.1200E+05
     42      5      1      5       0.000          0.1000E+05
     43      5      2      1       10.00          0.1200E+05
     44      5      2      5       0.000          0.1000E+05
     45      5      3      1       10.00          0.1200E+05
     46      5      3      5       0.000          0.1000E+05
     47      5      4      1       10.00          0.1200E+05
     48      5      4      5       0.000          0.1000E+05
     49      5      5      1       10.00          0.1200E+05
     50      5      5      5       0.000          0.1000E+05

     50 GHB CELLS
 
 SOLVING FOR HEAD 

 OUTPUT CONTROL FOR STRESS PERIOD    2   TIME STEP    1
    SAVE HEAD FOR ALL LAYERS
    SAVE DRAWDOWN FOR ALL LAYERS
    SAVE BUDGET
    PRINT HEAD FOR ALL LAYERS
    PRINT BUDGET
 UBDSV1 SAVING "         STORAGE" ON UNIT  53 AT TIME STEP  1, STRESS PERIOD   2
 UBDSV2 SAVING "   CONSTANT HEAD" ON UNIT  53 AT TIME STEP  1, STRESS PERIOD   2
 UBDSV1 SAVING "FLOW RIGHT FACE " ON UNIT  53 AT TIME STEP  1, STRESS PERIOD   2
 UBDSV1 SAVING "FLOW FRONT FACE " ON UNIT  53 AT TIME STEP  1, STRESS PERIOD   2
 UBDSV1 SAVING "FLOW LOWER FACE " ON UNIT  53 AT TIME STEP  1, STRESS PERIOD   2
1
              HEAD IN LAYER   1 AT END OF TIME STEP   1 IN STRESS PERIOD    2
  ---------------------------------------------------------------------------

            1           2           3           4           5
 ............................................................
   1    9.975       4.603       2.646       1.275      1.5282E-03
   2    9.975       4.603       2.646       1.275      1.5282E-03
   3    9.975       4.603       2.646       1.275      1.5282E-03
   4    9.975       4.603       2.646       1.275      1.5282E-03
   5    9.975       4.603       2.646       1.275      1.5282E-03
1
              HEAD IN LAYER   2 AT END OF TIME STEP   1 IN STRESS PERIOD    2
  ---------------------------------------------------------------------------

            1           2           3           4           5
 ............................................................
   1    9.975       4.603       2.646       1.275      1.5282E-03
   2    9.975       4.603       2.646       1.275      1.5282E-03
   3    9.975       4.603       2.646       1.275      1.5282E-03
   4    9.975       4.603       2.646       1.275      1.5282E-03
   5    9.975       4.603       2.646       1.275      1.5282E-03
1
              HEAD IN LAYER   3 AT END OF TIME STEP   1 IN STRESS PERIOD    2
  ---------------------------------------------------------------------------

            1           2           3           4           5
 ............................................................
   1    9.975       4.603       2.646       1.275      1.5282E-03
   2    9.975       4.603       2.646       1.275      1.5282E-03
   3    9.975       4.603       2.646       1.275      1.5282E-03
   4    9.975       4.603       2.646       1.275      1.5282E-03
   5    9.975       4.603       2.646       1.275      1.5282E-03
1
              HEAD IN LAYER   4 AT END OF TIME STEP   1 IN STRESS PERIOD    2
  ---------------------------------------------------------------------------

            1           2           3           4           5
 ............................................................
   1    9.975       4.603       2.646       1.275      1.5282E-03
   2    9.975       4.603       2.646       1.275      1.5282E-03
   3    9.975       4.603       2.646       1.275      1.5282E-03
   4    9.975       4.603       2.646       1.275      1.5282E-03
   5    9.975       4.603       2.646       1.275      1.5282E-03
1
              HEAD IN LAYER   5 AT END OF TIME STEP   1 IN STRESS PERIOD    2
  ---------------------------------------------------------------------------

            1           2           3           4           5
 ............................................................
   1    9.975       4.603       2.646       1.275      1.5282E-03
   2    9.975       4.603       2.646       1.275      1.5282E-03
   3    9.975       4.603       2.646       1.275      1.5282E-03
   4    9.975       4.603       2.646       1.275      1.5282E-03
   5    9.975       4.603       2.646       1.275      1.5282E-03

 HEAD WILL BE SAVED ON UNIT   51 AT END OF TIME STEP    1, STRESS PERIOD    2

 DRAWDOWN WILL BE SAVED ON UNIT   52 AT END OF TIME STEP    1, STRESS PERIOD    2
1
  VOLUMETRIC BUDGET FOR ENTIRE MODEL AT END OF TIME STEP    1, STRESS PERIOD   2
  ------------------------------------------------------------------------------

     CUMULATIVE VOLUMES      L**3       RATES FOR THIS TIME STEP      L**3/T
     ------------------                 ------------------------

           IN:                                      IN:
           ---                                      ---
             STORAGE =           0.0000               STORAGE =           0.0000
       CONSTANT HEAD =           0.0000         CONSTANT HEAD =           0.0000
               WELLS =           0.0000                 WELLS =           0.0000
     HEAD DEP BOUNDS =        7957.5059       HEAD DEP BOUNDS =        7582.7207

            TOTAL IN =        7957.5059              TOTAL IN =        7582.7207

          OUT:                                     OUT:
          ----                                     ----
             STORAGE =        7200.7319               STORAGE =        7200.7319
       CONSTANT HEAD =           0.0000         CONSTANT HEAD =           0.0000
               WELLS =           0.0000                 WELLS =           0.0000
     HEAD DEP BOUNDS =         756.8463       HEAD DEP BOUNDS =         382.0610

           TOTAL OUT =        7957.5781             TOTAL OUT =        7582.7930

            IN - OUT =      -7.2266E-02              IN - OUT =      -7.2266E-02

 PERCENT DISCREPANCY =          -0.00     PERCENT DISCREPANCY =          -0.00






         TIME SUMMARY AT END OF TIME STEP    1 IN STRESS PERIOD    2
                    SECONDS     MINUTES      HOURS       DAYS        YEARS
                    -----------------------------------------------------------
   TIME STEP LENGTH  86400.      1440.0      24.000      1.0000     2.73785E-03
 STRESS PERIOD TIME  86400.      1440.0      24.000      1.0000     2.73785E-03
         TOTAL TIME 1.72800E+05  2880.0      48.000      2.0000     5.47570E-03
1
 
 SOLVING FOR HEAD 

 OUTPUT CONTROL FOR STRESS PERIOD    2   TIME STEP    2
    SAVE HEAD FOR ALL LAYERS
    SAVE DRAWDOWN FOR ALL LAYERS
    SAVE BUDGET
    PRINT HEAD FOR ALL LAYERS
    PRINT BUDGET
 UBDSV1 SAVING "         STORAGE" ON UNIT  53 AT TIME STEP  2, STRESS PERIOD   2
 UBDSV2 SAVING "   CONSTANT HEAD" ON UNIT  53 AT TIME STEP  2, STRESS PERIOD   2
 UBDSV1 SAVING "FLOW RIGHT FACE " ON UNIT  53 AT TIME STEP  2, STRESS PERIOD   2
 UBDSV1 SAVING "FLOW FRONT FACE " ON UNIT  53 AT TIME STEP  2, STRESS PERIOD   2
 UBDSV1 SAVING "FLOW LOWER FACE " ON UNIT  53 AT TIME STEP  2, STRESS PERIOD   2
1
              HEAD IN LAYER   1 AT END OF TIME STEP   2 IN STRESS PERIOD    2
  ---------------------------------------------------------------------------

            1           2           3           4           5
 ............................................................
   1    9.995       5.210       2.854       1.326      1.5890E-03
   2    9.995       5.210       2.854       1.326      1.5890E-03
   3    9.995       5.210       2.854       1.326      1.5890E-03
   4    9.995       5.210       2.854       1.326      1.5890E-03
   5    9.995       5.210       2.854       1.326      1.5890E-03
1
              HEAD IN LAYER   2 AT END OF TIME STEP   2 IN STRESS PERIOD    2
  ---------------------------------------------------------------------------

            1           2           3           4           5
 ............................................................
   1    9.995       5.210       2.854       1.326      1.5890E-03
   2    9.995       5.210       2.854       1.326      1.5890E-03
   3    9.995       5.210       2.854       1.326      1.5890E-03
   4    9.995       5.210       2.854       1.326      1.5890E-03
   5    9.995       5.210       2.854       1.326      1.5890E-03
1
              HEAD IN LAYER   3 AT END OF TIME STEP   2 IN STRESS PERIOD    2
  ---------------------------------------------------------------------------

            1           2           3           4           5
 ............................................................
   1    9.995       5.210       2.854       1.326      1.5890E-03
   2    9.995       5.210       2.854       1.326      1.5890E-03
   3    9.995       5.210       2.854       1.326      1.5890E-03
   4    9.995       5.210       2.854       1.326      1.5890E-03
   5    9.995       5.210       2.854       1.326      1.5890E-03
1
              HEAD IN LAYER   4 AT END OF TIME STEP   2 IN STRESS PERIOD    2
  ---------------------------------------------------------------------------

            1           2           3           4           5
 ............................................................
   1    9.995       5.210       2.854       1.326      1.5890E-03
   2    9.995       5.210       2.854       1.326      1.5890E-03
   3    9.995       5.210       2.854       1.326      1.5890E-03
   4    9.995       5.210       2.854       1.326      1.5890E-03
   5    9.995       5.210       2.854       1.326      1.5890E-03
1
              HEAD IN LAYER   5 AT END OF TIME STEP   2 IN STRESS PERIOD    2
  ---------------------------------------------------------------------------

            1           2           3           4           5
 ............................................................
   1    9.995       5.210       2.854       1.326      1.5890E-03
   2    9.995       5.210       2.854       1.326      1.5890E-03
   3    9.995       5.210       2.854       1.326      1.5890E-03
   4    9.995       5.210       2.854       1.326      1.5890E-03
   5    9.995       5.210       2.854       1.326      1.5890E-03

 HEAD WILL BE SAVED ON UNIT   51 AT END OF TIME STEP    2, STRESS PERIOD    2

 DRAWDOWN WILL BE SAVED ON UNIT   52 AT END OF TIME STEP    2, STRESS PERIOD    2
1
  VOLUMETRIC BUDGET FOR ENTIRE MODEL AT END OF TIME STEP    2, STRESS PERIOD   2
  ------------------------------------------------------------------------------

     CUMULATIVE VOLUMES      L**3       RATES FOR THIS TIME STEP      L**3/T
     ------------------                 ------------------------

           IN:                                      IN:
           ---                                      ---
             STORAGE =           0.0000               STORAGE =           0.0000
       CONSTANT HEAD =           0.0000         CONSTANT HEAD =           0.0000
               WELLS =           0.0000                 WELLS =           0.0000
     HEAD DEP BOUNDS =        9417.4219       HEAD DEP BOUNDS =        1459.9161

            TOTAL IN =        9417.4219              TOTAL IN =        1459.9161

          OUT:                                     OUT:
          ----                                     ----
             STORAGE =        8263.4570               STORAGE =        1062.7255
       CONSTANT HEAD =           0.0000         CONSTANT HEAD =           0.0000
               WELLS =           0.0000                 WELLS =           0.0000
     HEAD DEP BOUNDS =        1154.0947       HEAD DEP BOUNDS =         397.2485

           TOTAL OUT =        9417.5518             TOTAL OUT =        1459.9739

            IN - OUT =          -0.1299              IN - OUT =      -5.7739E-02

 PERCENT DISCREPANCY =          -0.00     PERCENT DISCREPANCY =          -0.00






         TIME SUMMARY AT END OF TIME STEP    2 IN STRESS PERIOD    2
                    SECONDS     MINUTES      HOURS       DAYS        YEARS
                    -----------------------------------------------------------
   TIME STEP LENGTH  86400.      1440.0      24.000      1.0000     2.73785E-03
 STRESS PERIOD TIME 1.72800E+05  2880.0      48.000      2.0000     5.47570E-03
         TOTAL TIME 2.59200E+05  4320.0      72.000      3.0000     8.21355E-03
1
 
 SOLVING FOR HEAD 

 OUTPUT CONTROL FOR STRESS PERIOD    2   TIME STEP    3
    SAVE HEAD FOR ALL LAYERS
    SAVE DRAWDOWN FOR ALL LAYERS
    SAVE BUDGET
    PRINT HEAD FOR ALL LAYERS
    PRINT BUDGET
 UBDSV1 SAVING "         STORAGE" ON UNIT  53 AT TIME STEP  3, STRESS PERIOD   2
 UBDSV2 SAVING "   CONSTANT HEAD" ON UNIT  53 AT TIME STEP  3, STRESS PERIOD   2
 UBDSV1 SAVING "FLOW RIGHT FACE " ON UNIT  53 AT TIME STEP  3, STRESS PERIOD   2
 UBDSV1 SAVING "FLOW FRONT FACE " ON UNIT  53 AT TIME STEP  3, STRESS PERIOD   2
 UBDSV1 SAVING "FLOW LOWER FACE " ON UNIT  53 AT TIME STEP  3, STRESS PERIOD   2
1
              HEAD IN LAYER   1 AT END OF TIME STEP   3 IN STRESS PERIOD    2
  ---------------------------------------------------------------------------

            1           2           3           4           5
 ............................................................
   1    9.996       5.652       3.077       1.397      1.6742E-03
   2    9.996       5.652       3.077       1.397      1.6742E-03
   3    9.996       5.652       3.077       1.397      1.6742E-03
   4    9.996       5.652       3.077       1.397      1.6742E-03
   5    9.996       5.652       3.077       1.397      1.6742E-03
1
              HEAD IN LAYER   2 AT END OF TIME STEP   3 IN STRESS PERIOD    2
  ---------------------------------------------------------------------------

            1           2           3           4           5
 ............................................................
   1    9.996       5.652       3.077       1.397      1.6742E-03
   2    9.996       5.652       3.077       1.397      1.6742E-03
   3    9.996       5.652       3.077       1.397      1.6742E-03
   4    9.996       5.652       3.077       1.397      1.6742E-03
   5    9.996       5.652       3.077       1.397      1.6742E-03
1
              HEAD IN LAYER   3 AT END OF TIME STEP   3 IN STRESS PERIOD    2
  ---------------------------------------------------------------------------

            1           2           3           4           5
 ............................................................
   1    9.996       5.652       3.077       1.397      1.6742E-03
   2    9.996       5.652       3.077       1.397      1.6742E-03
   3    9.996       5.652       3.077       1.397      1.6742E-03
   4    9.996       5.652       3.077       1.397      1.6742E-03
   5    9.996       5.652       3.077       1.397      1.6742E-03
1
              HEAD IN LAYER   4 AT END OF TIME STEP   3 IN STRESS PERIOD    2
  ---------------------------------------------------------------------------

            1           2           3           4           5
 ............................................................
   1    9.996       5.652       3.077       1.397      1.6742E-03
   2    9.996       5.652       3.077       1.397      1.6742E-03
   3    9.996       5.652       3.077       1.397      1.6742E-03
   4    9.996       5.652       3.077       1.397      1.6742E-03
   5    9.996       5.652       3.077       1.397      1.6742E-03
1
              HEAD IN LAYER   5 AT END OF TIME STEP   3 IN STRESS PERIOD    2
  ---------------------------------------------------------------------------

            1           2           3           4           5
 ............................................................
   1    9.996       5.652       3.077       1.397      1.6742E-03
   2    9.996       5.652       3.077       1.397      1.6742E-03
   3    9.996       5.652       3.077       1.397      1.6742E-03
   4    9.996       5.652       3.077       1.397      1.6742E-03
   5    9.996       5.652       3.077       1.397      1.6742E-03

 HEAD WILL BE SAVED ON UNIT   51 AT END OF TIME STEP    3, STRESS PERIOD    2

 DRAWDOWN WILL BE SAVED ON UNIT   52 AT END OF TIME STEP    3, STRESS PERIOD    2
1
  VOLUMETRIC BUDGET FOR ENTIRE MODEL AT END OF TIME STEP    3, STRESS PERIOD   2
  ------------------------------------------------------------------------------

     CUMULATIVE VOLUMES      L**3       RATES FOR THIS TIME STEP      L**3/T
     ------------------                 ------------------------

           IN:                                      IN:
           ---                                      ---
             STORAGE =           0.0000               STORAGE =           0.0000
       CONSTANT HEAD =           0.0000         CONSTANT HEAD =           0.0000
               WELLS =           0.0000                 WELLS =           0.0000
     HEAD DEP BOUNDS =       10721.0742       HEAD DEP BOUNDS =        1303.6528

            TOTAL IN =       10721.0742              TOTAL IN =        1303.6528

          OUT:                                     OUT:
          ----                                     ----
             STORAGE =        9148.5449               STORAGE =         885.0880
       CONSTANT HEAD =           0.0000         CONSTANT HEAD =           0.0000
               WELLS =           0.0000                 WELLS =           0.0000
     HEAD DEP BOUNDS =        1572.6398       HEAD DEP BOUNDS =         418.5450

           TOTAL OUT =       10721.1846             TOTAL OUT =        1303.6331

            IN - OUT =          -0.1104              IN - OUT =       1.9775E-02

 PERCENT DISCREPANCY =          -0.00     PERCENT DISCREPANCY =           0.00






         TIME SUMMARY AT END OF TIME STEP    3 IN STRESS PERIOD    2
                    SECONDS     MINUTES      HOURS       DAYS        YEARS
                    -----------------------------------------------------------
   TIME STEP LENGTH  86400.      1440.0      24.000      1.0000     2.73785E-03
 STRESS PERIOD TIME 2.59200E+05  4320.0      72.000      3.0000     8.21355E-03
         TOTAL TIME 3.45600E+05  5760.0      96.000      4.0000     1.09514E-02
1
 
 SOLVING FOR HEAD 

 OUTPUT CONTROL FOR STRESS PERIOD    2   TIME STEP    4
    SAVE HEAD FOR ALL LAYERS
    SAVE DRAWDOWN FOR ALL LAYERS
    SAVE BUDGET
    PRINT HEAD FOR ALL LAYERS
    PRINT BUDGET
 UBDSV1 SAVING "         STORAGE" ON UNIT  53 AT TIME STEP  4, STRESS PERIOD   2
 UBDSV2 SAVING "   CONSTANT HEAD" ON UNIT  53 AT TIME STEP  4, STRESS PERIOD   2
 UBDSV1 SAVING "FLOW RIGHT FACE " ON UNIT  53 AT TIME STEP  4, STRESS PERIOD   2
 UBDSV1 SAVING "FLOW FRONT FACE " ON UNIT  53 AT TIME STEP  4, STRESS PERIOD   2
 UBDSV1 SAVING "FLOW LOWER FACE " ON UNIT  53 AT TIME STEP  4, STRESS PERIOD   2
1
              HEAD IN LAYER   1 AT END OF TIME STEP   4 IN STRESS PERIOD    2
  ---------------------------------------------------------------------------

            1           2           3           4           5
 ............................................................
   1    9.996       5.983       3.296       1.481      1.7746E-03
   2    9.996       5.983       3.296       1.481      1.7746E-03
   3    9.996       5.983       3.296       1.481      1.7746E-03
   4    9.996       5.983       3.296       1.481      1.7746E-03
   5    9.996       5.983       3.296       1.481      1.7746E-03
1
              HEAD IN LAYER   2 AT END OF TIME STEP   4 IN STRESS PERIOD    2
  ---------------------------------------------------------------------------

            1           2           3           4           5
 ............................................................
   1    9.996       5.983       3.296       1.481      1.7746E-03
   2    9.996       5.983       3.296       1.481      1.7746E-03
   3    9.996       5.983       3.296       1.481      1.7746E-03
   4    9.996       5.983       3.296       1.481      1.7746E-03
   5    9.996       5.983       3.296       1.481      1.7746E-03
1
              HEAD IN LAYER   3 AT END OF TIME STEP   4 IN STRESS PERIOD    2
  ---------------------------------------------------------------------------

            1           2           3           4           5
 ............................................................
   1    9.996       5.983       3.296       1.481      1.7746E-03
   2    9.996       5.983       3.296       1.481      1.7746E-03
   3    9.996       5.983       3.296       1.481      1.7746E-03
   4    9.996       5.983       3.296       1.481      1.7746E-03
   5    9.996       5.983       3.296       1.481      1.7746E-03
1
              HEAD IN LAYER   4 AT END OF TIME STEP   4 IN STRESS PERIOD    2
  ---------------------------------------------------------------------------

            1           2           3           4           5
 ............................................................
   1    9.996       5.983       3.296       1.481      1.7746E-03
   2    9.996       5.983       3.296       1.481      1.7746E-03
   3    9.996       5.983       3.296       1.481      1.7746E-03
   4    9.996       5.983       3.296       1.481      1.7746E-03
   5    9.996       5.983       3.296       1.481      1.7746E-03
1
              HEAD IN LAYER   5 AT END OF TIME STEP   4 IN STRESS PERIOD    2
  ---------------------------------------------------------------------------

            1           2           3           4           5
 ............................................................
   1    9.996       5.983       3.296       1.481      1.7746E-03
   2    9.996       5.983       3.296       1.481      1.7746E-03
   3    9.996       5.983       3.296       1.481      1.7746E-03
   4    9.996       5.983       3.296       1.481      1.7746E-03
   5    9.996       5.983       3.296       1.481      1.7746E-03

 HEAD WILL BE SAVED ON UNIT   51 AT END OF TIME STEP    4, STRESS PERIOD    2

 DRAWDOWN WILL BE SAVED ON UNIT   52 AT END OF TIME STEP    4, STRESS PERIOD    2
1
  VOLUMETRIC BUDGET FOR ENTIRE MODEL AT END OF TIME STEP    4, STRESS PERIOD   2
  ------------------------------------------------------------------------------

     CUMULATIVE VOLUMES      L**3       RATES FOR THIS TIME STEP      L**3/T
     ------------------                 ------------------------

           IN:                                      IN:
           ---                                      ---
             STORAGE =           0.0000               STORAGE =           0.0000
       CONSTANT HEAD =           0.0000         CONSTANT HEAD =           0.0000
               WELLS =           0.0000                 WELLS =           0.0000
     HEAD DEP BOUNDS =       11925.2861       HEAD DEP BOUNDS =        1204.2122

            TOTAL IN =       11925.2861              TOTAL IN =        1204.2122

          OUT:                                     OUT:
          ----                                     ----
             STORAGE =        9909.0479               STORAGE =         760.5030
       CONSTANT HEAD =           0.0000         CONSTANT HEAD =           0.0000
               WELLS =           0.0000                 WELLS =           0.0000
     HEAD DEP BOUNDS =        2016.2906       HEAD DEP BOUNDS =         443.6509

           TOTAL OUT =       11925.3389             TOTAL OUT =        1204.1538

            IN - OUT =      -5.2734E-02              IN - OUT =       5.8350E-02

 PERCENT DISCREPANCY =          -0.00     PERCENT DISCREPANCY =           0.00






         TIME SUMMARY AT END OF TIME STEP    4 IN STRESS PERIOD    2
                    SECONDS     MINUTES      HOURS       DAYS        YEARS
                    -----------------------------------------------------------
   TIME STEP LENGTH  86400.      1440.0      24.000      1.0000     2.73785E-03
 STRESS PERIOD TIME 3.45600E+05  5760.0      96.000      4.0000     1.09514E-02
         TOTAL TIME 4.32000E+05  7200.0      120.00      5.0000     1.36893E-02
1
 
 SOLVING FOR HEAD 

 OUTPUT CONTROL FOR STRESS PERIOD    2   TIME STEP    5
    SAVE HEAD FOR ALL LAYERS
    SAVE DRAWDOWN FOR ALL LAYERS
    SAVE BUDGET
    PRINT HEAD FOR ALL LAYERS
    PRINT BUDGET
 UBDSV1 SAVING "         STORAGE" ON UNIT  53 AT TIME STEP  5, STRESS PERIOD   2
 UBDSV2 SAVING "   CONSTANT HEAD" ON UNIT  53 AT TIME STEP  5, STRESS PERIOD   2
 UBDSV1 SAVING "FLOW RIGHT FACE " ON UNIT  53 AT TIME STEP  5, STRESS PERIOD   2
 UBDSV1 SAVING "FLOW FRONT FACE " ON UNIT  53 AT TIME STEP  5, STRESS PERIOD   2
 UBDSV1 SAVING "FLOW LOWER FACE " ON UNIT  53 AT TIME STEP  5, STRESS PERIOD   2
1
              HEAD IN LAYER   1 AT END OF TIME STEP   5 IN STRESS PERIOD    2
  ---------------------------------------------------------------------------

            1           2           3           4           5
 ............................................................
   1    9.996       6.238       3.499       1.571      1.8821E-03
   2    9.996       6.238       3.499       1.571      1.8821E-03
   3    9.996       6.238       3.499       1.571      1.8821E-03
   4    9.996       6.238       3.499       1.571      1.8821E-03
   5    9.996       6.238       3.499       1.571      1.8821E-03
1
              HEAD IN LAYER   2 AT END OF TIME STEP   5 IN STRESS PERIOD    2
  ---------------------------------------------------------------------------

            1           2           3           4           5
 ............................................................
   1    9.996       6.238       3.499       1.571      1.8821E-03
   2    9.996       6.238       3.499       1.571      1.8821E-03
   3    9.996       6.238       3.499       1.571      1.8821E-03
   4    9.996       6.238       3.499       1.571      1.8821E-03
   5    9.996       6.238       3.499       1.571      1.8821E-03
1
              HEAD IN LAYER   3 AT END OF TIME STEP   5 IN STRESS PERIOD    2
  ---------------------------------------------------------------------------

            1           2           3           4           5
 ............................................................
   1    9.996       6.238       3.499       1.571      1.8821E-03
   2    9.996       6.238       3.499       1.571      1.8821E-03
   3    9.996       6.238       3.499       1.571      1.8821E-03
   4    9.996       6.238       3.499       1.571      1.8821E-03
   5    9.996       6.238       3.499       1.571      1.8821E-03
1
              HEAD IN LAYER   4 AT END OF TIME STEP   5 IN STRESS PERIOD    2
  ---------------------------------------------------------------------------

            1           2           3           4           5
 ............................................................
   1    9.996       6.238       3.499       1.571      1.8821E-03
   2    9.996       6.238       3.499       1.571      1.8821E-03
   3    9.996       6.238       3.499       1.571      1.8821E-03
   4    9.996       6.238       3.499       1.571      1.8821E-03
   5    9.996       6.238       3.499       1.571      1.8821E-03
1
              HEAD IN LAYER   5 AT END OF TIME STEP   5 IN STRESS PERIOD    2
  ---------------------------------------------------------------------------

            1           2           3           4           5
 ............................................................
   1    9.996       6.238       3.499       1.571      1.8821E-03
   2    9.996       6.238       3.499       1.571      1.8821E-03
   3    9.996       6.238       3.499       1.571      1.8821E-03
   4    9.996       6.238       3.499       1.571      1.8821E-03
   5    9.996       6.238       3.499       1.571      1.8821E-03

 HEAD WILL BE SAVED ON UNIT   51 AT END OF TIME STEP    5, STRESS PERIOD    2

 DRAWDOWN WILL BE SAVED ON UNIT   52 AT END OF TIME STEP    5, STRESS PERIOD    2
1
  VOLUMETRIC BUDGET FOR ENTIRE MODEL AT END OF TIME STEP    5, STRESS PERIOD   2
  ------------------------------------------------------------------------------

     CUMULATIVE VOLUMES      L**3       RATES FOR THIS TIME STEP      L**3/T
     ------------------                 ------------------------

           IN:                                      IN:
           ---                                      ---
             STORAGE =           0.0000               STORAGE =           0.0000
       CONSTANT HEAD =           0.0000         CONSTANT HEAD =           0.0000
               WELLS =           0.0000                 WELLS =           0.0000
     HEAD DEP BOUNDS =       13053.0957       HEAD DEP BOUNDS =        1127.8097

            TOTAL IN =       13053.0957              TOTAL IN =        1127.8097

          OUT:                                     OUT:
          ----                                     ----
             STORAGE =       10566.2607               STORAGE =         657.2125
       CONSTANT HEAD =           0.0000         CONSTANT HEAD =           0.0000
               WELLS =           0.0000                 WELLS =           0.0000
     HEAD DEP BOUNDS =        2486.8223       HEAD DEP BOUNDS =         470.5316

           TOTAL OUT =       13053.0830             TOTAL OUT =        1127.7440

            IN - OUT =       1.2695E-02              IN - OUT =       6.5674E-02

 PERCENT DISCREPANCY =           0.00     PERCENT DISCREPANCY =           0.01






         TIME SUMMARY AT END OF TIME STEP    5 IN STRESS PERIOD    2
                    SECONDS     MINUTES      HOURS       DAYS        YEARS
                    -----------------------------------------------------------
   TIME STEP LENGTH  86400.      1440.0      24.000      1.0000     2.73785E-03
 STRESS PERIOD TIME 4.32000E+05  7200.0      120.00      5.0000     1.36893E-02
         TOTAL TIME 5.18400E+05  8640.0      144.00      6.0000     1.64271E-02
1
 
 SOLVING FOR HEAD 

 OUTPUT CONTROL FOR STRESS PERIOD    2   TIME STEP    6
    SAVE HEAD FOR ALL LAYERS
    SAVE DRAWDOWN FOR ALL LAYERS
    SAVE BUDGET
    PRINT HEAD FOR ALL LAYERS
    PRINT BUDGET
 UBDSV1 SAVING "         STORAGE" ON UNIT  53 AT TIME STEP  6, STRESS PERIOD   2
 UBDSV2 SAVING "   CONSTANT HEAD" ON UNIT  53 AT TIME STEP  6, STRESS PERIOD   2
 UBDSV1 SAVING "FLOW RIGHT FACE " ON UNIT  53 AT TIME STEP  6, STRESS PERIOD   2
 UBDSV1 SAVING "FLOW FRONT FACE " ON UNIT  53 AT TIME STEP  6, STRESS PERIOD   2
 UBDSV1 SAVING "FLOW LOWER FACE " ON UNIT  53 AT TIME STEP  6, STRESS PERIOD   2
1
              HEAD IN LAYER   1 AT END OF TIME STEP   6 IN STRESS PERIOD    2
  ---------------------------------------------------------------------------

            1           2           3           4           5
 ............................................................
   1    9.996       6.439       3.682       1.661      1.9906E-03
   2    9.996       6.439       3.682       1.661      1.9906E-03
   3    9.996       6.439       3.682       1.661      1.9906E-03
   4    9.996       6.439       3.682       1.661      1.9906E-03
   5    9.996       6.439       3.682       1.661      1.9906E-03
1
              HEAD IN LAYER   2 AT END OF TIME STEP   6 IN STRESS PERIOD    2
  ---------------------------------------------------------------------------

            1           2           3           4           5
 ............................................................
   1    9.996       6.439       3.682       1.661      1.9906E-03
   2    9.996       6.439       3.682       1.661      1.9906E-03
   3    9.996       6.439       3.682       1.661      1.9906E-03
   4    9.996       6.439       3.682       1.661      1.9906E-03
   5    9.996       6.439       3.682       1.661      1.9906E-03
1
              HEAD IN LAYER   3 AT END OF TIME STEP   6 IN STRESS PERIOD    2
  ---------------------------------------------------------------------------

            1           2           3           4           5
 ............................................................
   1    9.996       6.439       3.682       1.661      1.9906E-03
   2    9.996       6.439       3.682       1.661      1.9906E-03
   3    9.996       6.439       3.682       1.661      1.9906E-03
   4    9.996       6.439       3.682       1.661      1.9906E-03
   5    9.996       6.439       3.682       1.661      1.9906E-03
1
              HEAD IN LAYER   4 AT END OF TIME STEP   6 IN STRESS PERIOD    2
  ---------------------------------------------------------------------------

            1           2           3           4           5
 ............................................................
   1    9.996       6.439       3.682       1.661      1.9906E-03
   2    9.996       6.439       3.682       1.661      1.9906E-03
   3    9.996       6.439       3.682       1.661      1.9906E-03
   4    9.996       6.439       3.682       1.661      1.9906E-03
   5    9.996       6.439       3.682       1.661      1.9906E-03
1
              HEAD IN LAYER   5 AT END OF TIME STEP   6 IN STRESS PERIOD    2
  ---------------------------------------------------------------------------

            1           2           3           4           5
 ............................................................
   1    9.996       6.439       3.682       1.661      1.9906E-03
   2    9.996       6.439       3.682       1.661      1.9906E-03
   3    9.996       6.439       3.682       1.661      1.9906E-03
   4    9.996       6.439       3.682       1.661      1.9906E-03
   5    9.996       6.439       3.682       1.661      1.9906E-03

 HEAD WILL BE SAVED ON UNIT   51 AT END OF TIME STEP    6, STRESS PERIOD    2

 DRAWDOWN WILL BE SAVED ON UNIT   52 AT END OF TIME STEP    6, STRESS PERIOD    2
1
  VOLUMETRIC BUDGET FOR ENTIRE MODEL AT END OF TIME STEP    6, STRESS PERIOD   2
  ------------------------------------------------------------------------------

     CUMULATIVE VOLUMES      L**3       RATES FOR THIS TIME STEP      L**3/T
     ------------------                 ------------------------

           IN:                                      IN:
           ---                                      ---
             STORAGE =           0.0000               STORAGE =           0.0000
       CONSTANT HEAD =           0.0000         CONSTANT HEAD =           0.0000
               WELLS =           0.0000                 WELLS =           0.0000
     HEAD DEP BOUNDS =       14120.6885       HEAD DEP BOUNDS =        1067.5924

            TOTAL IN =       14120.6885              TOTAL IN =        1067.5924

          OUT:                                     OUT:
          ----                                     ----
             STORAGE =       11136.2324               STORAGE =         569.9717
       CONSTANT HEAD =           0.0000         CONSTANT HEAD =           0.0000
               WELLS =           0.0000                 WELLS =           0.0000
     HEAD DEP BOUNDS =        2984.4617       HEAD DEP BOUNDS =         497.6395

           TOTAL OUT =       14120.6943             TOTAL OUT =        1067.6111

            IN - OUT =      -5.8594E-03              IN - OUT =      -1.8677E-02

 PERCENT DISCREPANCY =          -0.00     PERCENT DISCREPANCY =          -0.00






         TIME SUMMARY AT END OF TIME STEP    6 IN STRESS PERIOD    2
                    SECONDS     MINUTES      HOURS       DAYS        YEARS
                    -----------------------------------------------------------
   TIME STEP LENGTH  86400.      1440.0      24.000      1.0000     2.73785E-03
 STRESS PERIOD TIME 5.18400E+05  8640.0      144.00      6.0000     1.64271E-02
         TOTAL TIME 6.04800E+05  10080.      168.00      7.0000     1.91650E-02
1
 
 SOLVING FOR HEAD 

 OUTPUT CONTROL FOR STRESS PERIOD    2   TIME STEP    7
    SAVE HEAD FOR ALL LAYERS
    SAVE DRAWDOWN FOR ALL LAYERS
    SAVE BUDGET
    PRINT HEAD FOR ALL LAYERS
    PRINT BUDGET
 UBDSV1 SAVING "         STORAGE" ON UNIT  53 AT TIME STEP  7, STRESS PERIOD   2
 UBDSV2 SAVING "   CONSTANT HEAD" ON UNIT  53 AT TIME STEP  7, STRESS PERIOD   2
 UBDSV1 SAVING "FLOW RIGHT FACE " ON UNIT  53 AT TIME STEP  7, STRESS PERIOD   2
 UBDSV1 SAVING "FLOW FRONT FACE " ON UNIT  53 AT TIME STEP  7, STRESS PERIOD   2
 UBDSV1 SAVING "FLOW LOWER FACE " ON UNIT  53 AT TIME STEP  7, STRESS PERIOD   2
1
              HEAD IN LAYER   1 AT END OF TIME STEP   7 IN STRESS PERIOD    2
  ---------------------------------------------------------------------------

            1           2           3           4           5
 ............................................................
   1    9.997       6.600       3.846       1.749      2.0956E-03
   2    9.997       6.600       3.846       1.749      2.0956E-03
   3    9.997       6.600       3.846       1.749      2.0956E-03
   4    9.997       6.600       3.846       1.749      2.0956E-03
   5    9.997       6.600       3.846       1.749      2.0956E-03
1
              HEAD IN LAYER   2 AT END OF TIME STEP   7 IN STRESS PERIOD    2
  ---------------------------------------------------------------------------

            1           2           3           4           5
 ............................................................
   1    9.997       6.600       3.846       1.749      2.0956E-03
   2    9.997       6.600       3.846       1.749      2.0956E-03
   3    9.997       6.600       3.846       1.749      2.0956E-03
   4    9.997       6.600       3.846       1.749      2.0956E-03
   5    9.997       6.600       3.846       1.749      2.0956E-03
1
              HEAD IN LAYER   3 AT END OF TIME STEP   7 IN STRESS PERIOD    2
  ---------------------------------------------------------------------------

            1           2           3           4           5
 ............................................................
   1    9.997       6.600       3.846       1.749      2.0956E-03
   2    9.997       6.600       3.846       1.749      2.0956E-03
   3    9.997       6.600       3.846       1.749      2.0956E-03
   4    9.997       6.600       3.846       1.749      2.0956E-03
   5    9.997       6.600       3.846       1.749      2.0956E-03
1
              HEAD IN LAYER   4 AT END OF TIME STEP   7 IN STRESS PERIOD    2
  ---------------------------------------------------------------------------

            1           2           3           4           5
 ............................................................
   1    9.997       6.600       3.846       1.749      2.0956E-03
   2    9.997       6.600       3.846       1.749      2.0956E-03
   3    9.997       6.600       3.846       1.749      2.0956E-03
   4    9.997       6.600       3.846       1.749      2.0956E-03
   5    9.997       6.600       3.846       1.749      2.0956E-03
1
              HEAD IN LAYER   5 AT END OF TIME STEP   7 IN STRESS PERIOD    2
  ---------------------------------------------------------------------------

            1           2           3           4           5
 ............................................................
   1    9.997       6.600       3.846       1.749      2.0956E-03
   2    9.997       6.600       3.846       1.749      2.0956E-03
   3    9.997       6.600       3.846       1.749      2.0956E-03
   4    9.997       6.600       3.846       1.749      2.0956E-03
   5    9.997       6.600       3.846       1.749      2.0956E-03

 HEAD WILL BE SAVED ON UNIT   51 AT END OF TIME STEP    7, STRESS PERIOD    2

 DRAWDOWN WILL BE SAVED ON UNIT   52 AT END OF TIME STEP    7, STRESS PERIOD    2
1
  VOLUMETRIC BUDGET FOR ENTIRE MODEL AT END OF TIME STEP    7, STRESS PERIOD   2
  ------------------------------------------------------------------------------

     CUMULATIVE VOLUMES      L**3       RATES FOR THIS TIME STEP      L**3/T
     ------------------                 ------------------------

           IN:                                      IN:
           ---                                      ---
             STORAGE =           0.0000               STORAGE =           0.0000
       CONSTANT HEAD =           0.0000         CONSTANT HEAD =           0.0000
               WELLS =           0.0000                 WELLS =           0.0000
     HEAD DEP BOUNDS =       15140.0361       HEAD DEP BOUNDS =        1019.3475

            TOTAL IN =       15140.0361              TOTAL IN =        1019.3475

          OUT:                                     OUT:
          ----                                     ----
             STORAGE =       11631.6445               STORAGE =         495.4124
       CONSTANT HEAD =           0.0000         CONSTANT HEAD =           0.0000
               WELLS =           0.0000                 WELLS =           0.0000
     HEAD DEP BOUNDS =        3508.3708       HEAD DEP BOUNDS =         523.9091

           TOTAL OUT =       15140.0156             TOTAL OUT =        1019.3215

            IN - OUT =       2.0508E-02              IN - OUT =       2.6062E-02

 PERCENT DISCREPANCY =           0.00     PERCENT DISCREPANCY =           0.00






         TIME SUMMARY AT END OF TIME STEP    7 IN STRESS PERIOD    2
                    SECONDS     MINUTES      HOURS       DAYS        YEARS
                    -----------------------------------------------------------
   TIME STEP LENGTH  86400.      1440.0      24.000      1.0000     2.73785E-03
 STRESS PERIOD TIME 6.04800E+05  10080.      168.00      7.0000     1.91650E-02
         TOTAL TIME 6.91200E+05  11520.      192.00      8.0000     2.19028E-02
1
 
 SOLVING FOR HEAD 

 OUTPUT CONTROL FOR STRESS PERIOD    2   TIME STEP    8
    SAVE HEAD FOR ALL LAYERS
    SAVE DRAWDOWN FOR ALL LAYERS
    SAVE BUDGET
    PRINT HEAD FOR ALL LAYERS
    PRINT BUDGET
 UBDSV1 SAVING "         STORAGE" ON UNIT  53 AT TIME STEP  8, STRESS PERIOD   2
 UBDSV2 SAVING "   CONSTANT HEAD" ON UNIT  53 AT TIME STEP  8, STRESS PERIOD   2
 UBDSV1 SAVING "FLOW RIGHT FACE " ON UNIT  53 AT TIME STEP  8, STRESS PERIOD   2
 UBDSV1 SAVING "FLOW FRONT FACE " ON UNIT  53 AT TIME STEP  8, STRESS PERIOD   2
 UBDSV1 SAVING "FLOW LOWER FACE " ON UNIT  53 AT TIME STEP  8, STRESS PERIOD   2
1
              HEAD IN LAYER   1 AT END OF TIME STEP   8 IN STRESS PERIOD    2
  ---------------------------------------------------------------------------

            1           2           3           4           5
 ............................................................
   1    9.997       6.731       3.991       1.831      2.1947E-03
   2    9.997       6.731       3.991       1.831      2.1947E-03
   3    9.997       6.731       3.991       1.831      2.1947E-03
   4    9.997       6.731       3.991       1.831      2.1947E-03
   5    9.997       6.731       3.991       1.831      2.1947E-03
1
              HEAD IN LAYER   2 AT END OF TIME STEP   8 IN STRESS PERIOD    2
  ---------------------------------------------------------------------------

            1           2           3           4           5
 ............................................................
   1    9.997       6.731       3.991       1.831      2.1947E-03
   2    9.997       6.731       3.991       1.831      2.1947E-03
   3    9.997       6.731       3.991       1.831      2.1947E-03
   4    9.997       6.731       3.991       1.831      2.1947E-03
   5    9.997       6.731       3.991       1.831      2.1947E-03
1
              HEAD IN LAYER   3 AT END OF TIME STEP   8 IN STRESS PERIOD    2
  ---------------------------------------------------------------------------

            1           2           3           4           5
 ............................................................
   1    9.997       6.731       3.991       1.831      2.1947E-03
   2    9.997       6.731       3.991       1.831      2.1947E-03
   3    9.997       6.731       3.991       1.831      2.1947E-03
   4    9.997       6.731       3.991       1.831      2.1947E-03
   5    9.997       6.731       3.991       1.831      2.1947E-03
1
              HEAD IN LAYER   4 AT END OF TIME STEP   8 IN STRESS PERIOD    2
  ---------------------------------------------------------------------------

            1           2           3           4           5
 ............................................................
   1    9.997       6.731       3.991       1.831      2.1947E-03
   2    9.997       6.731       3.991       1.831      2.1947E-03
   3    9.997       6.731       3.991       1.831      2.1947E-03
   4    9.997       6.731       3.991       1.831      2.1947E-03
   5    9.997       6.731       3.991       1.831      2.1947E-03
1
              HEAD IN LAYER   5 AT END OF TIME STEP   8 IN STRESS PERIOD    2
  ---------------------------------------------------------------------------

            1           2           3           4           5
 ............................................................
   1    9.997       6.731       3.991       1.831      2.1947E-03
   2    9.997       6.731       3.991       1.831      2.1947E-03
   3    9.997       6.731       3.991       1.831      2.1947E-03
   4    9.997       6.731       3.991       1.831      2.1947E-03
   5    9.997       6.731       3.991       1.831      2.1947E-03

 HEAD WILL BE SAVED ON UNIT   51 AT END OF TIME STEP    8, STRESS PERIOD    2

 DRAWDOWN WILL BE SAVED ON UNIT   52 AT END OF TIME STEP    8, STRESS PERIOD    2
1
  VOLUMETRIC BUDGET FOR ENTIRE MODEL AT END OF TIME STEP    8, STRESS PERIOD   2
  ------------------------------------------------------------------------------

     CUMULATIVE VOLUMES      L**3       RATES FOR THIS TIME STEP      L**3/T
     ------------------                 ------------------------

           IN:                                      IN:
           ---                                      ---
             STORAGE =           0.0000               STORAGE =           0.0000
       CONSTANT HEAD =           0.0000         CONSTANT HEAD =           0.0000
               WELLS =           0.0000                 WELLS =           0.0000
     HEAD DEP BOUNDS =       16119.9355       HEAD DEP BOUNDS =         979.8997

            TOTAL IN =       16119.9355              TOTAL IN =         979.8997

          OUT:                                     OUT:
          ----                                     ----
             STORAGE =       12062.8477               STORAGE =         431.2034
       CONSTANT HEAD =           0.0000         CONSTANT HEAD =           0.0000
               WELLS =           0.0000                 WELLS =           0.0000
     HEAD DEP BOUNDS =        4057.0432       HEAD DEP BOUNDS =         548.6724

           TOTAL OUT =       16119.8906             TOTAL OUT =         979.8758

            IN - OUT =       4.4922E-02              IN - OUT =       2.3865E-02

 PERCENT DISCREPANCY =           0.00     PERCENT DISCREPANCY =           0.00






         TIME SUMMARY AT END OF TIME STEP    8 IN STRESS PERIOD    2
                    SECONDS     MINUTES      HOURS       DAYS        YEARS
                    -----------------------------------------------------------
   TIME STEP LENGTH  86400.      1440.0      24.000      1.0000     2.73785E-03
 STRESS PERIOD TIME 6.91200E+05  11520.      192.00      8.0000     2.19028E-02
         TOTAL TIME 7.77600E+05  12960.      216.00      9.0000     2.46407E-02
1
 
 SOLVING FOR HEAD 

 OUTPUT CONTROL FOR STRESS PERIOD    2   TIME STEP    9
    SAVE HEAD FOR ALL LAYERS
    SAVE DRAWDOWN FOR ALL LAYERS
    SAVE BUDGET
    PRINT HEAD FOR ALL LAYERS
    PRINT BUDGET
 UBDSV1 SAVING "         STORAGE" ON UNIT  53 AT TIME STEP  9, STRESS PERIOD   2
 UBDSV2 SAVING "   CONSTANT HEAD" ON UNIT  53 AT TIME STEP  9, STRESS PERIOD   2
 UBDSV1 SAVING "FLOW RIGHT FACE " ON UNIT  53 AT TIME STEP  9, STRESS PERIOD   2
 UBDSV1 SAVING "FLOW FRONT FACE " ON UNIT  53 AT TIME STEP  9, STRESS PERIOD   2
 UBDSV1 SAVING "FLOW LOWER FACE " ON UNIT  53 AT TIME STEP  9, STRESS PERIOD   2
1
              HEAD IN LAYER   1 AT END OF TIME STEP   9 IN STRESS PERIOD    2
  ---------------------------------------------------------------------------

            1           2           3           4           5
 ............................................................
   1    9.997       6.840       4.119       1.908      2.2862E-03
   2    9.997       6.840       4.119       1.908      2.2862E-03
   3    9.997       6.840       4.119       1.908      2.2862E-03
   4    9.997       6.840       4.119       1.908      2.2862E-03
   5    9.997       6.840       4.119       1.908      2.2862E-03
1
              HEAD IN LAYER   2 AT END OF TIME STEP   9 IN STRESS PERIOD    2
  ---------------------------------------------------------------------------

            1           2           3           4           5
 ............................................................
   1    9.997       6.840       4.119       1.908      2.2862E-03
   2    9.997       6.840       4.119       1.908      2.2862E-03
   3    9.997       6.840       4.119       1.908      2.2862E-03
   4    9.997       6.840       4.119       1.908      2.2862E-03
   5    9.997       6.840       4.119       1.908      2.2862E-03
1
              HEAD IN LAYER   3 AT END OF TIME STEP   9 IN STRESS PERIOD    2
  ---------------------------------------------------------------------------

            1           2           3           4           5
 ............................................................
   1    9.997       6.840       4.119       1.908      2.2862E-03
   2    9.997       6.840       4.119       1.908      2.2862E-03
   3    9.997       6.840       4.119       1.908      2.2862E-03
   4    9.997       6.840       4.119       1.908      2.2862E-03
   5    9.997       6.840       4.119       1.908      2.2862E-03
1
              HEAD IN LAYER   4 AT END OF TIME STEP   9 IN STRESS PERIOD    2
  ---------------------------------------------------------------------------

            1           2           3           4           5
 ............................................................
   1    9.997       6.840       4.119       1.908      2.2862E-03
   2    9.997       6.840       4.119       1.908      2.2862E-03
   3    9.997       6.840       4.119       1.908      2.2862E-03
   4    9.997       6.840       4.119       1.908      2.2862E-03
   5    9.997       6.840       4.119       1.908      2.2862E-03
1
              HEAD IN LAYER   5 AT END OF TIME STEP   9 IN STRESS PERIOD    2
  ---------------------------------------------------------------------------

            1           2           3           4           5
 ............................................................
   1    9.997       6.840       4.119       1.908      2.2862E-03
   2    9.997       6.840       4.119       1.908      2.2862E-03
   3    9.997       6.840       4.119       1.908      2.2862E-03
   4    9.997       6.840       4.119       1.908      2.2862E-03
   5    9.997       6.840       4.119       1.908      2.2862E-03

 HEAD WILL BE SAVED ON UNIT   51 AT END OF TIME STEP    9, STRESS PERIOD    2

 DRAWDOWN WILL BE SAVED ON UNIT   52 AT END OF TIME STEP    9, STRESS PERIOD    2
1
  VOLUMETRIC BUDGET FOR ENTIRE MODEL AT END OF TIME STEP    9, STRESS PERIOD   2
  ------------------------------------------------------------------------------

     CUMULATIVE VOLUMES      L**3       RATES FOR THIS TIME STEP      L**3/T
     ------------------                 ------------------------

           IN:                                      IN:
           ---                                      ---
             STORAGE =           0.0000               STORAGE =           0.0000
       CONSTANT HEAD =           0.0000         CONSTANT HEAD =           0.0000
               WELLS =           0.0000                 WELLS =           0.0000
     HEAD DEP BOUNDS =       17067.1211       HEAD DEP BOUNDS =         947.1856

            TOTAL IN =       17067.1211              TOTAL IN =         947.1856

          OUT:                                     OUT:
          ----                                     ----
             STORAGE =       12438.4863               STORAGE =         375.6391
       CONSTANT HEAD =           0.0000         CONSTANT HEAD =           0.0000
               WELLS =           0.0000                 WELLS =           0.0000
     HEAD DEP BOUNDS =        4628.6025       HEAD DEP BOUNDS =         571.5593

           TOTAL OUT =       17067.0898             TOTAL OUT =         947.1985

            IN - OUT =       3.1250E-02              IN - OUT =      -1.2878E-02

 PERCENT DISCREPANCY =           0.00     PERCENT DISCREPANCY =          -0.00






         TIME SUMMARY AT END OF TIME STEP    9 IN STRESS PERIOD    2
                    SECONDS     MINUTES      HOURS       DAYS        YEARS
                    -----------------------------------------------------------
   TIME STEP LENGTH  86400.      1440.0      24.000      1.0000     2.73785E-03
 STRESS PERIOD TIME 7.77600E+05  12960.      216.00      9.0000     2.46407E-02
         TOTAL TIME 8.64000E+05  14400.      240.00      10.000     2.73785E-02
1
 
 SOLVING FOR HEAD 

 OUTPUT CONTROL FOR STRESS PERIOD    2   TIME STEP   10
    SAVE HEAD FOR ALL LAYERS
    SAVE DRAWDOWN FOR ALL LAYERS
    SAVE BUDGET
    PRINT HEAD FOR ALL LAYERS
    PRINT BUDGET
 UBDSV1 SAVING "         STORAGE" ON UNIT  53 AT TIME STEP 10, STRESS PERIOD   2
 UBDSV2 SAVING "   CONSTANT HEAD" ON UNIT  53 AT TIME STEP 10, STRESS PERIOD   2
 UBDSV1 SAVING "FLOW RIGHT FACE " ON UNIT  53 AT TIME STEP 10, STRESS PERIOD   2
 UBDSV1 SAVING "FLOW FRONT FACE " ON UNIT  53 AT TIME STEP 10, STRESS PERIOD   2
 UBDSV1 SAVING "FLOW LOWER FACE " ON UNIT  53 AT TIME STEP 10, STRESS PERIOD   2
1
              HEAD IN LAYER   1 AT END OF TIME STEP  10 IN STRESS PERIOD    2
  ---------------------------------------------------------------------------

            1           2           3           4           5
 ............................................................
   1    9.997       6.931       4.231       1.977      2.3696E-03
   2    9.997       6.931       4.231       1.977      2.3696E-03
   3    9.997       6.931       4.231       1.977      2.3696E-03
   4    9.997       6.931       4.231       1.977      2.3696E-03
   5    9.997       6.931       4.231       1.977      2.3696E-03
1
              HEAD IN LAYER   2 AT END OF TIME STEP  10 IN STRESS PERIOD    2
  ---------------------------------------------------------------------------

            1           2           3           4           5
 ............................................................
   1    9.997       6.931       4.231       1.977      2.3696E-03
   2    9.997       6.931       4.231       1.977      2.3696E-03
   3    9.997       6.931       4.231       1.977      2.3696E-03
   4    9.997       6.931       4.231       1.977      2.3696E-03
   5    9.997       6.931       4.231       1.977      2.3696E-03
1
              HEAD IN LAYER   3 AT END OF TIME STEP  10 IN STRESS PERIOD    2
  ---------------------------------------------------------------------------

            1           2           3           4           5
 ............................................................
   1    9.997       6.931       4.231       1.977      2.3696E-03
   2    9.997       6.931       4.231       1.977      2.3696E-03
   3    9.997       6.931       4.231       1.977      2.3696E-03
   4    9.997       6.931       4.231       1.977      2.3696E-03
   5    9.997       6.931       4.231       1.977      2.3696E-03
1
              HEAD IN LAYER   4 AT END OF TIME STEP  10 IN STRESS PERIOD    2
  ---------------------------------------------------------------------------

            1           2           3           4           5
 ............................................................
   1    9.997       6.931       4.231       1.977      2.3696E-03
   2    9.997       6.931       4.231       1.977      2.3696E-03
   3    9.997       6.931       4.231       1.977      2.3696E-03
   4    9.997       6.931       4.231       1.977      2.3696E-03
   5    9.997       6.931       4.231       1.977      2.3696E-03
1
              HEAD IN LAYER   5 AT END OF TIME STEP  10 IN STRESS PERIOD    2
  ---------------------------------------------------------------------------

            1           2           3           4           5
 ............................................................
   1    9.997       6.931       4.231       1.977      2.3696E-03
   2    9.997       6.931       4.231       1.977      2.3696E-03
   3    9.997       6.931       4.231       1.977      2.3696E-03
   4    9.997       6.931       4.231       1.977      2.3696E-03
   5    9.997       6.931       4.231       1.977      2.3696E-03

 HEAD WILL BE SAVED ON UNIT   51 AT END OF TIME STEP   10, STRESS PERIOD    2

 DRAWDOWN WILL BE SAVED ON UNIT   52 AT END OF TIME STEP   10, STRESS PERIOD    2
1
  VOLUMETRIC BUDGET FOR ENTIRE MODEL AT END OF TIME STEP   10, STRESS PERIOD   2
  ------------------------------------------------------------------------------

     CUMULATIVE VOLUMES      L**3       RATES FOR THIS TIME STEP      L**3/T
     ------------------                 ------------------------

           IN:                                      IN:
           ---                                      ---
             STORAGE =           0.0000               STORAGE =           0.0000
       CONSTANT HEAD =           0.0000         CONSTANT HEAD =           0.0000
               WELLS =           0.0000                 WELLS =           0.0000
     HEAD DEP BOUNDS =       17986.8633       HEAD DEP BOUNDS =         919.7430

            TOTAL IN =       17986.8633              TOTAL IN =         919.7430

          OUT:                                     OUT:
          ----                                     ----
             STORAGE =       12765.8975               STORAGE =         327.4107
       CONSTANT HEAD =           0.0000         CONSTANT HEAD =           0.0000
               WELLS =           0.0000                 WELLS =           0.0000
     HEAD DEP BOUNDS =        5221.0127       HEAD DEP BOUNDS =         592.4101

           TOTAL OUT =       17986.9102             TOTAL OUT =         919.8208

            IN - OUT =      -4.6875E-02              IN - OUT =      -7.7759E-02

 PERCENT DISCREPANCY =          -0.00     PERCENT DISCREPANCY =          -0.01






         TIME SUMMARY AT END OF TIME STEP   10 IN STRESS PERIOD    2
                    SECONDS     MINUTES      HOURS       DAYS        YEARS
                    -----------------------------------------------------------
   TIME STEP LENGTH  86400.      1440.0      24.000      1.0000     2.73785E-03
 STRESS PERIOD TIME 8.64000E+05  14400.      240.00      10.000     2.73785E-02
         TOTAL TIME 9.50400E+05  15840.      264.00      11.000     3.01164E-02
1
 
 SOLVING FOR HEAD 

 OUTPUT CONTROL FOR STRESS PERIOD    2   TIME STEP   11
    SAVE HEAD FOR ALL LAYERS
    SAVE DRAWDOWN FOR ALL LAYERS
    SAVE BUDGET
    PRINT HEAD FOR ALL LAYERS
    PRINT BUDGET
 UBDSV1 SAVING "         STORAGE" ON UNIT  53 AT TIME STEP 11, STRESS PERIOD   2
 UBDSV2 SAVING "   CONSTANT HEAD" ON UNIT  53 AT TIME STEP 11, STRESS PERIOD   2
 UBDSV1 SAVING "FLOW RIGHT FACE " ON UNIT  53 AT TIME STEP 11, STRESS PERIOD   2
 UBDSV1 SAVING "FLOW FRONT FACE " ON UNIT  53 AT TIME STEP 11, STRESS PERIOD   2
 UBDSV1 SAVING "FLOW LOWER FACE " ON UNIT  53 AT TIME STEP 11, STRESS PERIOD   2
1
              HEAD IN LAYER   1 AT END OF TIME STEP  11 IN STRESS PERIOD    2
  ---------------------------------------------------------------------------

            1           2           3           4           5
 ............................................................
   1    9.997       7.008       4.329       2.040      2.4448E-03
   2    9.997       7.008       4.329       2.040      2.4448E-03
   3    9.997       7.008       4.329       2.040      2.4448E-03
   4    9.997       7.008       4.329       2.040      2.4448E-03
   5    9.997       7.008       4.329       2.040      2.4448E-03
1
              HEAD IN LAYER   2 AT END OF TIME STEP  11 IN STRESS PERIOD    2
  ---------------------------------------------------------------------------

            1           2           3           4           5
 ............................................................
   1    9.997       7.008       4.329       2.040      2.4448E-03
   2    9.997       7.008       4.329       2.040      2.4448E-03
   3    9.997       7.008       4.329       2.040      2.4448E-03
   4    9.997       7.008       4.329       2.040      2.4448E-03
   5    9.997       7.008       4.329       2.040      2.4448E-03
1
              HEAD IN LAYER   3 AT END OF TIME STEP  11 IN STRESS PERIOD    2
  ---------------------------------------------------------------------------

            1           2           3           4           5
 ............................................................
   1    9.997       7.008       4.329       2.040      2.4448E-03
   2    9.997       7.008       4.329       2.040      2.4448E-03
   3    9.997       7.008       4.329       2.040      2.4448E-03
   4    9.997       7.008       4.329       2.040      2.4448E-03
   5    9.997       7.008       4.329       2.040      2.4448E-03
1
              HEAD IN LAYER   4 AT END OF TIME STEP  11 IN STRESS PERIOD    2
  ---------------------------------------------------------------------------

            1           2           3           4           5
 ............................................................
   1    9.997       7.008       4.329       2.040      2.4448E-03
   2    9.997       7.008       4.329       2.040      2.4448E-03
   3    9.997       7.008       4.329       2.040      2.4448E-03
   4    9.997       7.008       4.329       2.040      2.4448E-03
   5    9.997       7.008       4.329       2.040      2.4448E-03
1
              HEAD IN LAYER   5 AT END OF TIME STEP  11 IN STRESS PERIOD    2
  ---------------------------------------------------------------------------

            1           2           3           4           5
 ............................................................
   1    9.997       7.008       4.329       2.040      2.4448E-03
   2    9.997       7.008       4.329       2.040      2.4448E-03
   3    9.997       7.008       4.329       2.040      2.4448E-03
   4    9.997       7.008       4.329       2.040      2.4448E-03
   5    9.997       7.008       4.329       2.040      2.4448E-03

 HEAD WILL BE SAVED ON UNIT   51 AT END OF TIME STEP   11, STRESS PERIOD    2

 DRAWDOWN WILL BE SAVED ON UNIT   52 AT END OF TIME STEP   11, STRESS PERIOD    2
1
  VOLUMETRIC BUDGET FOR ENTIRE MODEL AT END OF TIME STEP   11, STRESS PERIOD   2
  ------------------------------------------------------------------------------

     CUMULATIVE VOLUMES      L**3       RATES FOR THIS TIME STEP      L**3/T
     ------------------                 ------------------------

           IN:                                      IN:
           ---                                      ---
             STORAGE =           0.0000               STORAGE =           0.0000
       CONSTANT HEAD =           0.0000         CONSTANT HEAD =           0.0000
               WELLS =           0.0000                 WELLS =           0.0000
     HEAD DEP BOUNDS =       18883.5684       HEAD DEP BOUNDS =         896.7048

            TOTAL IN =       18883.5684              TOTAL IN =         896.7048

          OUT:                                     OUT:
          ----                                     ----
             STORAGE =       13051.3652               STORAGE =         285.4681
       CONSTANT HEAD =           0.0000         CONSTANT HEAD =           0.0000
               WELLS =           0.0000                 WELLS =           0.0000
     HEAD DEP BOUNDS =        5832.2178       HEAD DEP BOUNDS =         611.2053

           TOTAL OUT =       18883.5820             TOTAL OUT =         896.6733

            IN - OUT =      -1.3672E-02              IN - OUT =       3.1494E-02

 PERCENT DISCREPANCY =          -0.00     PERCENT DISCREPANCY =           0.00






         TIME SUMMARY AT END OF TIME STEP   11 IN STRESS PERIOD    2
                    SECONDS     MINUTES      HOURS       DAYS        YEARS
                    -----------------------------------------------------------
   TIME STEP LENGTH  86400.      1440.0      24.000      1.0000     2.73785E-03
 STRESS PERIOD TIME 9.50400E+05  15840.      264.00      11.000     3.01164E-02
         TOTAL TIME 1.03680E+06  17280.      288.00      12.000     3.28542E-02
1
 
 SOLVING FOR HEAD 

 OUTPUT CONTROL FOR STRESS PERIOD    2   TIME STEP   12
    SAVE HEAD FOR ALL LAYERS
    SAVE DRAWDOWN FOR ALL LAYERS
    SAVE BUDGET
    PRINT HEAD FOR ALL LAYERS
    PRINT BUDGET
 UBDSV1 SAVING "         STORAGE" ON UNIT  53 AT TIME STEP 12, STRESS PERIOD   2
 UBDSV2 SAVING "   CONSTANT HEAD" ON UNIT  53 AT TIME STEP 12, STRESS PERIOD   2
 UBDSV1 SAVING "FLOW RIGHT FACE " ON UNIT  53 AT TIME STEP 12, STRESS PERIOD   2
 UBDSV1 SAVING "FLOW FRONT FACE " ON UNIT  53 AT TIME STEP 12, STRESS PERIOD   2
 UBDSV1 SAVING "FLOW LOWER FACE " ON UNIT  53 AT TIME STEP 12, STRESS PERIOD   2
1
              HEAD IN LAYER   1 AT END OF TIME STEP  12 IN STRESS PERIOD    2
  ---------------------------------------------------------------------------

            1           2           3           4           5
 ............................................................
   1    9.997       7.074       4.414       2.096      2.5121E-03
   2    9.997       7.074       4.414       2.096      2.5121E-03
   3    9.997       7.074       4.414       2.096      2.5121E-03
   4    9.997       7.074       4.414       2.096      2.5121E-03
   5    9.997       7.074       4.414       2.096      2.5121E-03
1
              HEAD IN LAYER   2 AT END OF TIME STEP  12 IN STRESS PERIOD    2
  ---------------------------------------------------------------------------

            1           2           3           4           5
 ............................................................
   1    9.997       7.074       4.414       2.096      2.5121E-03
   2    9.997       7.074       4.414       2.096      2.5121E-03
   3    9.997       7.074       4.414       2.096      2.5121E-03
   4    9.997       7.074       4.414       2.096      2.5121E-03
   5    9.997       7.074       4.414       2.096      2.5121E-03
1
              HEAD IN LAYER   3 AT END OF TIME STEP  12 IN STRESS PERIOD    2
  ---------------------------------------------------------------------------

            1           2           3           4           5
 ............................................................
   1    9.997       7.074       4.414       2.096      2.5121E-03
   2    9.997       7.074       4.414       2.096      2.5121E-03
   3    9.997       7.074       4.414       2.096      2.5121E-03
   4    9.997       7.074       4.414       2.096      2.5121E-03
   5    9.997       7.074       4.414       2.096      2.5121E-03
1
              HEAD IN LAYER   4 AT END OF TIME STEP  12 IN STRESS PERIOD    2
  ---------------------------------------------------------------------------

            1           2           3           4           5
 ............................................................
   1    9.997       7.074       4.414       2.096      2.5121E-03
   2    9.997       7.074       4.414       2.096      2.5121E-03
   3    9.997       7.074       4.414       2.096      2.5121E-03
   4    9.997       7.074       4.414       2.096      2.5121E-03
   5    9.997       7.074       4.414       2.096      2.5121E-03
1
              HEAD IN LAYER   5 AT END OF TIME STEP  12 IN STRESS PERIOD    2
  ---------------------------------------------------------------------------

            1           2           3           4           5
 ............................................................
   1    9.997       7.074       4.414       2.096      2.5121E-03
   2    9.997       7.074       4.414       2.096      2.5121E-03
   3    9.997       7.074       4.414       2.096      2.5121E-03
   4    9.997       7.074       4.414       2.096      2.5121E-03
   5    9.997       7.074       4.414       2.096      2.5121E-03

 HEAD WILL BE SAVED ON UNIT   51 AT END OF TIME STEP   12, STRESS PERIOD    2

 DRAWDOWN WILL BE SAVED ON UNIT   52 AT END OF TIME STEP   12, STRESS PERIOD    2
1
  VOLUMETRIC BUDGET FOR ENTIRE MODEL AT END OF TIME STEP   12, STRESS PERIOD   2
  ------------------------------------------------------------------------------

     CUMULATIVE VOLUMES      L**3       RATES FOR THIS TIME STEP      L**3/T
     ------------------                 ------------------------

           IN:                                      IN:
           ---                                      ---
             STORAGE =           0.0000               STORAGE =           0.0000
       CONSTANT HEAD =           0.0000         CONSTANT HEAD =           0.0000
               WELLS =           0.0000                 WELLS =           0.0000
     HEAD DEP BOUNDS =       19760.4609       HEAD DEP BOUNDS =         876.8925

            TOTAL IN =       19760.4609              TOTAL IN =         876.8925

          OUT:                                     OUT:
          ----                                     ----
             STORAGE =       13300.3154               STORAGE =         248.9499
       CONSTANT HEAD =           0.0000         CONSTANT HEAD =           0.0000
               WELLS =           0.0000                 WELLS =           0.0000
     HEAD DEP BOUNDS =        6460.2314       HEAD DEP BOUNDS =         628.0136

           TOTAL OUT =       19760.5469             TOTAL OUT =         876.9635

            IN - OUT =      -8.5938E-02              IN - OUT =      -7.0984E-02

 PERCENT DISCREPANCY =          -0.00     PERCENT DISCREPANCY =          -0.01






         TIME SUMMARY AT END OF TIME STEP   12 IN STRESS PERIOD    2
                    SECONDS     MINUTES      HOURS       DAYS        YEARS
                    -----------------------------------------------------------
   TIME STEP LENGTH  86400.      1440.0      24.000      1.0000     2.73785E-03
 STRESS PERIOD TIME 1.03680E+06  17280.      288.00      12.000     3.28542E-02
         TOTAL TIME 1.12320E+06  18720.      312.00      13.000     3.55921E-02
1
 
 SOLVING FOR HEAD 

 OUTPUT CONTROL FOR STRESS PERIOD    2   TIME STEP   13
    SAVE HEAD FOR ALL LAYERS
    SAVE DRAWDOWN FOR ALL LAYERS
    SAVE BUDGET
    PRINT HEAD FOR ALL LAYERS
    PRINT BUDGET
 UBDSV1 SAVING "         STORAGE" ON UNIT  53 AT TIME STEP 13, STRESS PERIOD   2
 UBDSV2 SAVING "   CONSTANT HEAD" ON UNIT  53 AT TIME STEP 13, STRESS PERIOD   2
 UBDSV1 SAVING "FLOW RIGHT FACE " ON UNIT  53 AT TIME STEP 13, STRESS PERIOD   2
 UBDSV1 SAVING "FLOW FRONT FACE " ON UNIT  53 AT TIME STEP 13, STRESS PERIOD   2
 UBDSV1 SAVING "FLOW LOWER FACE " ON UNIT  53 AT TIME STEP 13, STRESS PERIOD   2
1
              HEAD IN LAYER   1 AT END OF TIME STEP  13 IN STRESS PERIOD    2
  ---------------------------------------------------------------------------

            1           2           3           4           5
 ............................................................
   1    9.997       7.130       4.489       2.146      2.5718E-03
   2    9.997       7.130       4.489       2.146      2.5718E-03
   3    9.997       7.130       4.489       2.146      2.5718E-03
   4    9.997       7.130       4.489       2.146      2.5718E-03
   5    9.997       7.130       4.489       2.146      2.5718E-03
1
              HEAD IN LAYER   2 AT END OF TIME STEP  13 IN STRESS PERIOD    2
  ---------------------------------------------------------------------------

            1           2           3           4           5
 ............................................................
   1    9.997       7.130       4.489       2.146      2.5718E-03
   2    9.997       7.130       4.489       2.146      2.5718E-03
   3    9.997       7.130       4.489       2.146      2.5718E-03
   4    9.997       7.130       4.489       2.146      2.5718E-03
   5    9.997       7.130       4.489       2.146      2.5718E-03
1
              HEAD IN LAYER   3 AT END OF TIME STEP  13 IN STRESS PERIOD    2
  ---------------------------------------------------------------------------

            1           2           3           4           5
 ............................................................
   1    9.997       7.130       4.489       2.146      2.5718E-03
   2    9.997       7.130       4.489       2.146      2.5718E-03
   3    9.997       7.130       4.489       2.146      2.5718E-03
   4    9.997       7.130       4.489       2.146      2.5718E-03
   5    9.997       7.130       4.489       2.146      2.5718E-03
1
              HEAD IN LAYER   4 AT END OF TIME STEP  13 IN STRESS PERIOD    2
  ---------------------------------------------------------------------------

            1           2           3           4           5
 ............................................................
   1    9.997       7.130       4.489       2.146      2.5718E-03
   2    9.997       7.130       4.489       2.146      2.5718E-03
   3    9.997       7.130       4.489       2.146      2.5718E-03
   4    9.997       7.130       4.489       2.146      2.5718E-03
   5    9.997       7.130       4.489       2.146      2.5718E-03
1
              HEAD IN LAYER   5 AT END OF TIME STEP  13 IN STRESS PERIOD    2
  ---------------------------------------------------------------------------

            1           2           3           4           5
 ............................................................
   1    9.997       7.130       4.489       2.146      2.5718E-03
   2    9.997       7.130       4.489       2.146      2.5718E-03
   3    9.997       7.130       4.489       2.146      2.5718E-03
   4    9.997       7.130       4.489       2.146      2.5718E-03
   5    9.997       7.130       4.489       2.146      2.5718E-03

 HEAD WILL BE SAVED ON UNIT   51 AT END OF TIME STEP   13, STRESS PERIOD    2

 DRAWDOWN WILL BE SAVED ON UNIT   52 AT END OF TIME STEP   13, STRESS PERIOD    2
1
  VOLUMETRIC BUDGET FOR ENTIRE MODEL AT END OF TIME STEP   13, STRESS PERIOD   2
  ------------------------------------------------------------------------------

     CUMULATIVE VOLUMES      L**3       RATES FOR THIS TIME STEP      L**3/T
     ------------------                 ------------------------

           IN:                                      IN:
           ---                                      ---
             STORAGE =           0.0000               STORAGE =           0.0000
       CONSTANT HEAD =           0.0000         CONSTANT HEAD =           0.0000
               WELLS =           0.0000                 WELLS =           0.0000
     HEAD DEP BOUNDS =       20620.5547       HEAD DEP BOUNDS =         860.0941

            TOTAL IN =       20620.5547              TOTAL IN =         860.0941

          OUT:                                     OUT:
          ----                                     ----
             STORAGE =       13517.4453               STORAGE =         217.1301
       CONSTANT HEAD =           0.0000         CONSTANT HEAD =           0.0000
               WELLS =           0.0000                 WELLS =           0.0000
     HEAD DEP BOUNDS =        7103.1875       HEAD DEP BOUNDS =         642.9559

           TOTAL OUT =       20620.6328             TOTAL OUT =         860.0861

            IN - OUT =      -7.8125E-02              IN - OUT =       8.0566E-03

 PERCENT DISCREPANCY =          -0.00     PERCENT DISCREPANCY =           0.00






         TIME SUMMARY AT END OF TIME STEP   13 IN STRESS PERIOD    2
                    SECONDS     MINUTES      HOURS       DAYS        YEARS
                    -----------------------------------------------------------
   TIME STEP LENGTH  86400.      1440.0      24.000      1.0000     2.73785E-03
 STRESS PERIOD TIME 1.12320E+06  18720.      312.00      13.000     3.55921E-02
         TOTAL TIME 1.20960E+06  20160.      336.00      14.000     3.83299E-02
1
 
 SOLVING FOR HEAD 

 OUTPUT CONTROL FOR STRESS PERIOD    2   TIME STEP   14
    SAVE HEAD FOR ALL LAYERS
    SAVE DRAWDOWN FOR ALL LAYERS
    SAVE BUDGET
    PRINT HEAD FOR ALL LAYERS
    PRINT BUDGET
 UBDSV1 SAVING "         STORAGE" ON UNIT  53 AT TIME STEP 14, STRESS PERIOD   2
 UBDSV2 SAVING "   CONSTANT HEAD" ON UNIT  53 AT TIME STEP 14, STRESS PERIOD   2
 UBDSV1 SAVING "FLOW RIGHT FACE " ON UNIT  53 AT TIME STEP 14, STRESS PERIOD   2
 UBDSV1 SAVING "FLOW FRONT FACE " ON UNIT  53 AT TIME STEP 14, STRESS PERIOD   2
 UBDSV1 SAVING "FLOW LOWER FACE " ON UNIT  53 AT TIME STEP 14, STRESS PERIOD   2
1
              HEAD IN LAYER   1 AT END OF TIME STEP  14 IN STRESS PERIOD    2
  ---------------------------------------------------------------------------

            1           2           3           4           5
 ............................................................
   1    9.997       7.179       4.554       2.190      2.6247E-03
   2    9.997       7.179       4.554       2.190      2.6247E-03
   3    9.997       7.179       4.554       2.190      2.6247E-03
   4    9.997       7.179       4.554       2.190      2.6247E-03
   5    9.997       7.179       4.554       2.190      2.6247E-03
1
              HEAD IN LAYER   2 AT END OF TIME STEP  14 IN STRESS PERIOD    2
  ---------------------------------------------------------------------------

            1           2           3           4           5
 ............................................................
   1    9.997       7.179       4.554       2.190      2.6247E-03
   2    9.997       7.179       4.554       2.190      2.6247E-03
   3    9.997       7.179       4.554       2.190      2.6247E-03
   4    9.997       7.179       4.554       2.190      2.6247E-03
   5    9.997       7.179       4.554       2.190      2.6247E-03
1
              HEAD IN LAYER   3 AT END OF TIME STEP  14 IN STRESS PERIOD    2
  ---------------------------------------------------------------------------

            1           2           3           4           5
 ............................................................
   1    9.997       7.179       4.554       2.190      2.6247E-03
   2    9.997       7.179       4.554       2.190      2.6247E-03
   3    9.997       7.179       4.554       2.190      2.6247E-03
   4    9.997       7.179       4.554       2.190      2.6247E-03
   5    9.997       7.179       4.554       2.190      2.6247E-03
1
              HEAD IN LAYER   4 AT END OF TIME STEP  14 IN STRESS PERIOD    2
  ---------------------------------------------------------------------------

            1           2           3           4           5
 ............................................................
   1    9.997       7.179       4.554       2.190      2.6247E-03
   2    9.997       7.179       4.554       2.190      2.6247E-03
   3    9.997       7.179       4.554       2.190      2.6247E-03
   4    9.997       7.179       4.554       2.190      2.6247E-03
   5    9.997       7.179       4.554       2.190      2.6247E-03
1
              HEAD IN LAYER   5 AT END OF TIME STEP  14 IN STRESS PERIOD    2
  ---------------------------------------------------------------------------

            1           2           3           4           5
 ............................................................
   1    9.997       7.179       4.554       2.190      2.6247E-03
   2    9.997       7.179       4.554       2.190      2.6247E-03
   3    9.997       7.179       4.554       2.190      2.6247E-03
   4    9.997       7.179       4.554       2.190      2.6247E-03
   5    9.997       7.179       4.554       2.190      2.6247E-03

 HEAD WILL BE SAVED ON UNIT   51 AT END OF TIME STEP   14, STRESS PERIOD    2

 DRAWDOWN WILL BE SAVED ON UNIT   52 AT END OF TIME STEP   14, STRESS PERIOD    2
1
  VOLUMETRIC BUDGET FOR ENTIRE MODEL AT END OF TIME STEP   14, STRESS PERIOD   2
  ------------------------------------------------------------------------------

     CUMULATIVE VOLUMES      L**3       RATES FOR THIS TIME STEP      L**3/T
     ------------------                 ------------------------

           IN:                                      IN:
           ---                                      ---
             STORAGE =           0.0000               STORAGE =           0.0000
       CONSTANT HEAD =           0.0000         CONSTANT HEAD =           0.0000
               WELLS =           0.0000                 WELLS =           0.0000
     HEAD DEP BOUNDS =       21466.2031       HEAD DEP BOUNDS =         845.6476

            TOTAL IN =       21466.2031              TOTAL IN =         845.6476

          OUT:                                     OUT:
          ----                                     ----
             STORAGE =       13706.8379               STORAGE =         189.3922
       CONSTANT HEAD =           0.0000         CONSTANT HEAD =           0.0000
               WELLS =           0.0000                 WELLS =           0.0000
     HEAD DEP BOUNDS =        7759.3672       HEAD DEP BOUNDS =         656.1798

           TOTAL OUT =       21466.2051             TOTAL OUT =         845.5720

            IN - OUT =      -1.9531E-03              IN - OUT =       7.5623E-02

 PERCENT DISCREPANCY =          -0.00     PERCENT DISCREPANCY =           0.01






         TIME SUMMARY AT END OF TIME STEP   14 IN STRESS PERIOD    2
                    SECONDS     MINUTES      HOURS       DAYS        YEARS
                    -----------------------------------------------------------
   TIME STEP LENGTH  86400.      1440.0      24.000      1.0000     2.73785E-03
 STRESS PERIOD TIME 1.20960E+06  20160.      336.00      14.000     3.83299E-02
         TOTAL TIME 1.29600E+06  21600.      360.00      15.000     4.10678E-02
1
 
 SOLVING FOR HEAD 

 OUTPUT CONTROL FOR STRESS PERIOD    2   TIME STEP   15
    SAVE HEAD FOR ALL LAYERS
    SAVE DRAWDOWN FOR ALL LAYERS
    SAVE BUDGET
    PRINT HEAD FOR ALL LAYERS
    PRINT BUDGET
 UBDSV1 SAVING "         STORAGE" ON UNIT  53 AT TIME STEP 15, STRESS PERIOD   2
 UBDSV2 SAVING "   CONSTANT HEAD" ON UNIT  53 AT TIME STEP 15, STRESS PERIOD   2
 UBDSV1 SAVING "FLOW RIGHT FACE " ON UNIT  53 AT TIME STEP 15, STRESS PERIOD   2
 UBDSV1 SAVING "FLOW FRONT FACE " ON UNIT  53 AT TIME STEP 15, STRESS PERIOD   2
 UBDSV1 SAVING "FLOW LOWER FACE " ON UNIT  53 AT TIME STEP 15, STRESS PERIOD   2
1
              HEAD IN LAYER   1 AT END OF TIME STEP  15 IN STRESS PERIOD    2
  ---------------------------------------------------------------------------

            1           2           3           4           5
 ............................................................
   1    9.997       7.221       4.611       2.229      2.6714E-03
   2    9.997       7.221       4.611       2.229      2.6714E-03
   3    9.997       7.221       4.611       2.229      2.6714E-03
   4    9.997       7.221       4.611       2.229      2.6714E-03
   5    9.997       7.221       4.611       2.229      2.6714E-03
1
              HEAD IN LAYER   2 AT END OF TIME STEP  15 IN STRESS PERIOD    2
  ---------------------------------------------------------------------------

            1           2           3           4           5
 ............................................................
   1    9.997       7.221       4.611       2.229      2.6714E-03
   2    9.997       7.221       4.611       2.229      2.6714E-03
   3    9.997       7.221       4.611       2.229      2.6714E-03
   4    9.997       7.221       4.611       2.229      2.6714E-03
   5    9.997       7.221       4.611       2.229      2.6714E-03
1
              HEAD IN LAYER   3 AT END OF TIME STEP  15 IN STRESS PERIOD    2
  ---------------------------------------------------------------------------

            1           2           3           4           5
 ............................................................
   1    9.997       7.221       4.611       2.229      2.6714E-03
   2    9.997       7.221       4.611       2.229      2.6714E-03
   3    9.997       7.221       4.611       2.229      2.6714E-03
   4    9.997       7.221       4.611       2.229      2.6714E-03
   5    9.997       7.221       4.611       2.229      2.6714E-03
1
              HEAD IN LAYER   4 AT END OF TIME STEP  15 IN STRESS PERIOD    2
  ---------------------------------------------------------------------------

            1           2           3           4           5
 ............................................................
   1    9.997       7.221       4.611       2.229      2.6714E-03
   2    9.997       7.221       4.611       2.229      2.6714E-03
   3    9.997       7.221       4.611       2.229      2.6714E-03
   4    9.997       7.221       4.611       2.229      2.6714E-03
   5    9.997       7.221       4.611       2.229      2.6714E-03
1
              HEAD IN LAYER   5 AT END OF TIME STEP  15 IN STRESS PERIOD    2
  ---------------------------------------------------------------------------

            1           2           3           4           5
 ............................................................
   1    9.997       7.221       4.611       2.229      2.6714E-03
   2    9.997       7.221       4.611       2.229      2.6714E-03
   3    9.997       7.221       4.611       2.229      2.6714E-03
   4    9.997       7.221       4.611       2.229      2.6714E-03
   5    9.997       7.221       4.611       2.229      2.6714E-03

 HEAD WILL BE SAVED ON UNIT   51 AT END OF TIME STEP   15, STRESS PERIOD    2

 DRAWDOWN WILL BE SAVED ON UNIT   52 AT END OF TIME STEP   15, STRESS PERIOD    2
1
  VOLUMETRIC BUDGET FOR ENTIRE MODEL AT END OF TIME STEP   15, STRESS PERIOD   2
  ------------------------------------------------------------------------------

     CUMULATIVE VOLUMES      L**3       RATES FOR THIS TIME STEP      L**3/T
     ------------------                 ------------------------

           IN:                                      IN:
           ---                                      ---
             STORAGE =           0.0000               STORAGE =           0.0000
       CONSTANT HEAD =           0.0000         CONSTANT HEAD =           0.0000
               WELLS =           0.0000                 WELLS =           0.0000
     HEAD DEP BOUNDS =       22299.1914       HEAD DEP BOUNDS =         832.9880

            TOTAL IN =       22299.1914              TOTAL IN =         832.9880

          OUT:                                     OUT:
          ----                                     ----
             STORAGE =       13872.0449               STORAGE =         165.2071
       CONSTANT HEAD =           0.0000         CONSTANT HEAD =           0.0000
               WELLS =           0.0000                 WELLS =           0.0000
     HEAD DEP BOUNDS =        8427.2100       HEAD DEP BOUNDS =         667.8430

           TOTAL OUT =       22299.2539             TOTAL OUT =         833.0500

            IN - OUT =      -6.2500E-02              IN - OUT =      -6.2012E-02

 PERCENT DISCREPANCY =          -0.00     PERCENT DISCREPANCY =          -0.01






         TIME SUMMARY AT END OF TIME STEP   15 IN STRESS PERIOD    2
                    SECONDS     MINUTES      HOURS       DAYS        YEARS
                    -----------------------------------------------------------
   TIME STEP LENGTH  86400.      1440.0      24.000      1.0000     2.73785E-03
 STRESS PERIOD TIME 1.29600E+06  21600.      360.00      15.000     4.10678E-02
         TOTAL TIME 1.38240E+06  23040.      384.00      16.000     4.38056E-02
1
 
 SOLVING FOR HEAD 

 OUTPUT CONTROL FOR STRESS PERIOD    2   TIME STEP   16
    SAVE HEAD FOR ALL LAYERS
    SAVE DRAWDOWN FOR ALL LAYERS
    SAVE BUDGET
    PRINT HEAD FOR ALL LAYERS
    PRINT BUDGET
 UBDSV1 SAVING "         STORAGE" ON UNIT  53 AT TIME STEP 16, STRESS PERIOD   2
 UBDSV2 SAVING "   CONSTANT HEAD" ON UNIT  53 AT TIME STEP 16, STRESS PERIOD   2
 UBDSV1 SAVING "FLOW RIGHT FACE " ON UNIT  53 AT TIME STEP 16, STRESS PERIOD   2
 UBDSV1 SAVING "FLOW FRONT FACE " ON UNIT  53 AT TIME STEP 16, STRESS PERIOD   2
 UBDSV1 SAVING "FLOW LOWER FACE " ON UNIT  53 AT TIME STEP 16, STRESS PERIOD   2
1
              HEAD IN LAYER   1 AT END OF TIME STEP  16 IN STRESS PERIOD    2
  ---------------------------------------------------------------------------

            1           2           3           4           5
 ............................................................
   1    9.997       7.257       4.661       2.263      2.7124E-03
   2    9.997       7.257       4.661       2.263      2.7124E-03
   3    9.997       7.257       4.661       2.263      2.7124E-03
   4    9.997       7.257       4.661       2.263      2.7124E-03
   5    9.997       7.257       4.661       2.263      2.7124E-03
1
              HEAD IN LAYER   2 AT END OF TIME STEP  16 IN STRESS PERIOD    2
  ---------------------------------------------------------------------------

            1           2           3           4           5
 ............................................................
   1    9.997       7.257       4.661       2.263      2.7124E-03
   2    9.997       7.257       4.661       2.263      2.7124E-03
   3    9.997       7.257       4.661       2.263      2.7124E-03
   4    9.997       7.257       4.661       2.263      2.7124E-03
   5    9.997       7.257       4.661       2.263      2.7124E-03
1
              HEAD IN LAYER   3 AT END OF TIME STEP  16 IN STRESS PERIOD    2
  ---------------------------------------------------------------------------

            1           2           3           4           5
 ............................................................
   1    9.997       7.257       4.661       2.263      2.7124E-03
   2    9.997       7.257       4.661       2.263      2.7124E-03
   3    9.997       7.257       4.661       2.263      2.7124E-03
   4    9.997       7.257       4.661       2.263      2.7124E-03
   5    9.997       7.257       4.661       2.263      2.7124E-03
1
              HEAD IN LAYER   4 AT END OF TIME STEP  16 IN STRESS PERIOD    2
  ---------------------------------------------------------------------------

            1           2           3           4           5
 ............................................................
   1    9.997       7.257       4.661       2.263      2.7124E-03
   2    9.997       7.257       4.661       2.263      2.7124E-03
   3    9.997       7.257       4.661       2.263      2.7124E-03
   4    9.997       7.257       4.661       2.263      2.7124E-03
   5    9.997       7.257       4.661       2.263      2.7124E-03
1
              HEAD IN LAYER   5 AT END OF TIME STEP  16 IN STRESS PERIOD    2
  ---------------------------------------------------------------------------

            1           2           3           4           5
 ............................................................
   1    9.997       7.257       4.661       2.263      2.7124E-03
   2    9.997       7.257       4.661       2.263      2.7124E-03
   3    9.997       7.257       4.661       2.263      2.7124E-03
   4    9.997       7.257       4.661       2.263      2.7124E-03
   5    9.997       7.257       4.661       2.263      2.7124E-03

 HEAD WILL BE SAVED ON UNIT   51 AT END OF TIME STEP   16, STRESS PERIOD    2

 DRAWDOWN WILL BE SAVED ON UNIT   52 AT END OF TIME STEP   16, STRESS PERIOD    2
1
  VOLUMETRIC BUDGET FOR ENTIRE MODEL AT END OF TIME STEP   16, STRESS PERIOD   2
  ------------------------------------------------------------------------------

     CUMULATIVE VOLUMES      L**3       RATES FOR THIS TIME STEP      L**3/T
     ------------------                 ------------------------

           IN:                                      IN:
           ---                                      ---
             STORAGE =           0.0000               STORAGE =           0.0000
       CONSTANT HEAD =           0.0000         CONSTANT HEAD =           0.0000
               WELLS =           0.0000                 WELLS =           0.0000
     HEAD DEP BOUNDS =       23121.3965       HEAD DEP BOUNDS =         822.2048

            TOTAL IN =       23121.3965              TOTAL IN =         822.2048

          OUT:                                     OUT:
          ----                                     ----
             STORAGE =       14016.1592               STORAGE =         144.1141
       CONSTANT HEAD =           0.0000         CONSTANT HEAD =           0.0000
               WELLS =           0.0000                 WELLS =           0.0000
     HEAD DEP BOUNDS =        9105.3125       HEAD DEP BOUNDS =         678.1029

           TOTAL OUT =       23121.4727             TOTAL OUT =         822.2170

            IN - OUT =      -7.6172E-02              IN - OUT =      -1.2207E-02

 PERCENT DISCREPANCY =          -0.00     PERCENT DISCREPANCY =          -0.00






         TIME SUMMARY AT END OF TIME STEP   16 IN STRESS PERIOD    2
                    SECONDS     MINUTES      HOURS       DAYS        YEARS
                    -----------------------------------------------------------
   TIME STEP LENGTH  86400.      1440.0      24.000      1.0000     2.73785E-03
 STRESS PERIOD TIME 1.38240E+06  23040.      384.00      16.000     4.38056E-02
         TOTAL TIME 1.46880E+06  24480.      408.00      17.000     4.65435E-02
1
 
 SOLVING FOR HEAD 

 OUTPUT CONTROL FOR STRESS PERIOD    2   TIME STEP   17
    SAVE HEAD FOR ALL LAYERS
    SAVE DRAWDOWN FOR ALL LAYERS
    SAVE BUDGET
    PRINT HEAD FOR ALL LAYERS
    PRINT BUDGET
 UBDSV1 SAVING "         STORAGE" ON UNIT  53 AT TIME STEP 17, STRESS PERIOD   2
 UBDSV2 SAVING "   CONSTANT HEAD" ON UNIT  53 AT TIME STEP 17, STRESS PERIOD   2
 UBDSV1 SAVING "FLOW RIGHT FACE " ON UNIT  53 AT TIME STEP 17, STRESS PERIOD   2
 UBDSV1 SAVING "FLOW FRONT FACE " ON UNIT  53 AT TIME STEP 17, STRESS PERIOD   2
 UBDSV1 SAVING "FLOW LOWER FACE " ON UNIT  53 AT TIME STEP 17, STRESS PERIOD   2
1
              HEAD IN LAYER   1 AT END OF TIME STEP  17 IN STRESS PERIOD    2
  ---------------------------------------------------------------------------

            1           2           3           4           5
 ............................................................
   1    9.997       7.288       4.704       2.293      2.7484E-03
   2    9.997       7.288       4.704       2.293      2.7484E-03
   3    9.997       7.288       4.704       2.293      2.7484E-03
   4    9.997       7.288       4.704       2.293      2.7484E-03
   5    9.997       7.288       4.704       2.293      2.7484E-03
1
              HEAD IN LAYER   2 AT END OF TIME STEP  17 IN STRESS PERIOD    2
  ---------------------------------------------------------------------------

            1           2           3           4           5
 ............................................................
   1    9.997       7.288       4.704       2.293      2.7484E-03
   2    9.997       7.288       4.704       2.293      2.7484E-03
   3    9.997       7.288       4.704       2.293      2.7484E-03
   4    9.997       7.288       4.704       2.293      2.7484E-03
   5    9.997       7.288       4.704       2.293      2.7484E-03
1
              HEAD IN LAYER   3 AT END OF TIME STEP  17 IN STRESS PERIOD    2
  ---------------------------------------------------------------------------

            1           2           3           4           5
 ............................................................
   1    9.997       7.288       4.704       2.293      2.7484E-03
   2    9.997       7.288       4.704       2.293      2.7484E-03
   3    9.997       7.288       4.704       2.293      2.7484E-03
   4    9.997       7.288       4.704       2.293      2.7484E-03
   5    9.997       7.288       4.704       2.293      2.7484E-03
1
              HEAD IN LAYER   4 AT END OF TIME STEP  17 IN STRESS PERIOD    2
  ---------------------------------------------------------------------------

            1           2           3           4           5
 ............................................................
   1    9.997       7.288       4.704       2.293      2.7484E-03
   2    9.997       7.288       4.704       2.293      2.7484E-03
   3    9.997       7.288       4.704       2.293      2.7484E-03
   4    9.997       7.288       4.704       2.293      2.7484E-03
   5    9.997       7.288       4.704       2.293      2.7484E-03
1
              HEAD IN LAYER   5 AT END OF TIME STEP  17 IN STRESS PERIOD    2
  ---------------------------------------------------------------------------

            1           2           3           4           5
 ............................................................
   1    9.997       7.288       4.704       2.293      2.7484E-03
   2    9.997       7.288       4.704       2.293      2.7484E-03
   3    9.997       7.288       4.704       2.293      2.7484E-03
   4    9.997       7.288       4.704       2.293      2.7484E-03
   5    9.997       7.288       4.704       2.293      2.7484E-03

 HEAD WILL BE SAVED ON UNIT   51 AT END OF TIME STEP   17, STRESS PERIOD    2

 DRAWDOWN WILL BE SAVED ON UNIT   52 AT END OF TIME STEP   17, STRESS PERIOD    2
1
  VOLUMETRIC BUDGET FOR ENTIRE MODEL AT END OF TIME STEP   17, STRESS PERIOD   2
  ------------------------------------------------------------------------------

     CUMULATIVE VOLUMES      L**3       RATES FOR THIS TIME STEP      L**3/T
     ------------------                 ------------------------

           IN:                                      IN:
           ---                                      ---
             STORAGE =           0.0000               STORAGE =           0.0000
       CONSTANT HEAD =           0.0000         CONSTANT HEAD =           0.0000
               WELLS =           0.0000                 WELLS =           0.0000
     HEAD DEP BOUNDS =       23934.2539       HEAD DEP BOUNDS =         812.8579

            TOTAL IN =       23934.2539              TOTAL IN =         812.8579

          OUT:                                     OUT:
          ----                                     ----
             STORAGE =       14141.8760               STORAGE =         125.7165
       CONSTANT HEAD =           0.0000         CONSTANT HEAD =           0.0000
               WELLS =           0.0000                 WELLS =           0.0000
     HEAD DEP BOUNDS =        9792.4229       HEAD DEP BOUNDS =         687.1107

           TOTAL OUT =       23934.2988             TOTAL OUT =         812.8273

            IN - OUT =      -4.4922E-02              IN - OUT =       3.0640E-02

 PERCENT DISCREPANCY =          -0.00     PERCENT DISCREPANCY =           0.00






         TIME SUMMARY AT END OF TIME STEP   17 IN STRESS PERIOD    2
                    SECONDS     MINUTES      HOURS       DAYS        YEARS
                    -----------------------------------------------------------
   TIME STEP LENGTH  86400.      1440.0      24.000      1.0000     2.73785E-03
 STRESS PERIOD TIME 1.46880E+06  24480.      408.00      17.000     4.65435E-02
         TOTAL TIME 1.55520E+06  25920.      432.00      18.000     4.92813E-02
1
 
 SOLVING FOR HEAD 

 OUTPUT CONTROL FOR STRESS PERIOD    2   TIME STEP   18
    SAVE HEAD FOR ALL LAYERS
    SAVE DRAWDOWN FOR ALL LAYERS
    SAVE BUDGET
    PRINT HEAD FOR ALL LAYERS
    PRINT BUDGET
 UBDSV1 SAVING "         STORAGE" ON UNIT  53 AT TIME STEP 18, STRESS PERIOD   2
 UBDSV2 SAVING "   CONSTANT HEAD" ON UNIT  53 AT TIME STEP 18, STRESS PERIOD   2
 UBDSV1 SAVING "FLOW RIGHT FACE " ON UNIT  53 AT TIME STEP 18, STRESS PERIOD   2
 UBDSV1 SAVING "FLOW FRONT FACE " ON UNIT  53 AT TIME STEP 18, STRESS PERIOD   2
 UBDSV1 SAVING "FLOW LOWER FACE " ON UNIT  53 AT TIME STEP 18, STRESS PERIOD   2
1
              HEAD IN LAYER   1 AT END OF TIME STEP  18 IN STRESS PERIOD    2
  ---------------------------------------------------------------------------

            1           2           3           4           5
 ............................................................
   1    9.997       7.315       4.742       2.320      2.7800E-03
   2    9.997       7.315       4.742       2.320      2.7800E-03
   3    9.997       7.315       4.742       2.320      2.7800E-03
   4    9.997       7.315       4.742       2.320      2.7800E-03
   5    9.997       7.315       4.742       2.320      2.7800E-03
1
              HEAD IN LAYER   2 AT END OF TIME STEP  18 IN STRESS PERIOD    2
  ---------------------------------------------------------------------------

            1           2           3           4           5
 ............................................................
   1    9.997       7.315       4.742       2.320      2.7800E-03
   2    9.997       7.315       4.742       2.320      2.7800E-03
   3    9.997       7.315       4.742       2.320      2.7800E-03
   4    9.997       7.315       4.742       2.320      2.7800E-03
   5    9.997       7.315       4.742       2.320      2.7800E-03
1
              HEAD IN LAYER   3 AT END OF TIME STEP  18 IN STRESS PERIOD    2
  ---------------------------------------------------------------------------

            1           2           3           4           5
 ............................................................
   1    9.997       7.315       4.742       2.320      2.7800E-03
   2    9.997       7.315       4.742       2.320      2.7800E-03
   3    9.997       7.315       4.742       2.320      2.7800E-03
   4    9.997       7.315       4.742       2.320      2.7800E-03
   5    9.997       7.315       4.742       2.320      2.7800E-03
1
              HEAD IN LAYER   4 AT END OF TIME STEP  18 IN STRESS PERIOD    2
  ---------------------------------------------------------------------------

            1           2           3           4           5
 ............................................................
   1    9.997       7.315       4.742       2.320      2.7800E-03
   2    9.997       7.315       4.742       2.320      2.7800E-03
   3    9.997       7.315       4.742       2.320      2.7800E-03
   4    9.997       7.315       4.742       2.320      2.7800E-03
   5    9.997       7.315       4.742       2.320      2.7800E-03
1
              HEAD IN LAYER   5 AT END OF TIME STEP  18 IN STRESS PERIOD    2
  ---------------------------------------------------------------------------

            1           2           3           4           5
 ............................................................
   1    9.997       7.315       4.742       2.320      2.7800E-03
   2    9.997       7.315       4.742       2.320      2.7800E-03
   3    9.997       7.315       4.742       2.320      2.7800E-03
   4    9.997       7.315       4.742       2.320      2.7800E-03
   5    9.997       7.315       4.742       2.320      2.7800E-03

 HEAD WILL BE SAVED ON UNIT   51 AT END OF TIME STEP   18, STRESS PERIOD    2

 DRAWDOWN WILL BE SAVED ON UNIT   52 AT END OF TIME STEP   18, STRESS PERIOD    2
1
  VOLUMETRIC BUDGET FOR ENTIRE MODEL AT END OF TIME STEP   18, STRESS PERIOD   2
  ------------------------------------------------------------------------------

     CUMULATIVE VOLUMES      L**3       RATES FOR THIS TIME STEP      L**3/T
     ------------------                 ------------------------

           IN:                                      IN:
           ---                                      ---
             STORAGE =           0.0000               STORAGE =           0.0000
       CONSTANT HEAD =           0.0000         CONSTANT HEAD =           0.0000
               WELLS =           0.0000                 WELLS =           0.0000
     HEAD DEP BOUNDS =       24738.9980       HEAD DEP BOUNDS =         804.7441

            TOTAL IN =       24738.9980              TOTAL IN =         804.7441

          OUT:                                     OUT:
          ----                                     ----
             STORAGE =       14251.5430               STORAGE =         109.6672
       CONSTANT HEAD =           0.0000         CONSTANT HEAD =           0.0000
               WELLS =           0.0000                 WELLS =           0.0000
     HEAD DEP BOUNDS =       10487.4297       HEAD DEP BOUNDS =         695.0073

           TOTAL OUT =       24738.9727             TOTAL OUT =         804.6745

            IN - OUT =       2.5391E-02              IN - OUT =       6.9580E-02

 PERCENT DISCREPANCY =           0.00     PERCENT DISCREPANCY =           0.01






         TIME SUMMARY AT END OF TIME STEP   18 IN STRESS PERIOD    2
                    SECONDS     MINUTES      HOURS       DAYS        YEARS
                    -----------------------------------------------------------
   TIME STEP LENGTH  86400.      1440.0      24.000      1.0000     2.73785E-03
 STRESS PERIOD TIME 1.55520E+06  25920.      432.00      18.000     4.92813E-02
         TOTAL TIME 1.64160E+06  27360.      456.00      19.000     5.20192E-02
1
 
 SOLVING FOR HEAD 

 OUTPUT CONTROL FOR STRESS PERIOD    2   TIME STEP   19
    SAVE HEAD FOR ALL LAYERS
    SAVE DRAWDOWN FOR ALL LAYERS
    SAVE BUDGET
    PRINT HEAD FOR ALL LAYERS
    PRINT BUDGET
 UBDSV1 SAVING "         STORAGE" ON UNIT  53 AT TIME STEP 19, STRESS PERIOD   2
 UBDSV2 SAVING "   CONSTANT HEAD" ON UNIT  53 AT TIME STEP 19, STRESS PERIOD   2
 UBDSV1 SAVING "FLOW RIGHT FACE " ON UNIT  53 AT TIME STEP 19, STRESS PERIOD   2
 UBDSV1 SAVING "FLOW FRONT FACE " ON UNIT  53 AT TIME STEP 19, STRESS PERIOD   2
 UBDSV1 SAVING "FLOW LOWER FACE " ON UNIT  53 AT TIME STEP 19, STRESS PERIOD   2
1
              HEAD IN LAYER   1 AT END OF TIME STEP  19 IN STRESS PERIOD    2
  ---------------------------------------------------------------------------

            1           2           3           4           5
 ............................................................
   1    9.997       7.339       4.775       2.343      2.8077E-03
   2    9.997       7.339       4.775       2.343      2.8077E-03
   3    9.997       7.339       4.775       2.343      2.8077E-03
   4    9.997       7.339       4.775       2.343      2.8077E-03
   5    9.997       7.339       4.775       2.343      2.8077E-03
1
              HEAD IN LAYER   2 AT END OF TIME STEP  19 IN STRESS PERIOD    2
  ---------------------------------------------------------------------------

            1           2           3           4           5
 ............................................................
   1    9.997       7.339       4.775       2.343      2.8077E-03
   2    9.997       7.339       4.775       2.343      2.8077E-03
   3    9.997       7.339       4.775       2.343      2.8077E-03
   4    9.997       7.339       4.775       2.343      2.8077E-03
   5    9.997       7.339       4.775       2.343      2.8077E-03
1
              HEAD IN LAYER   3 AT END OF TIME STEP  19 IN STRESS PERIOD    2
  ---------------------------------------------------------------------------

            1           2           3           4           5
 ............................................................
   1    9.997       7.339       4.775       2.343      2.8077E-03
   2    9.997       7.339       4.775       2.343      2.8077E-03
   3    9.997       7.339       4.775       2.343      2.8077E-03
   4    9.997       7.339       4.775       2.343      2.8077E-03
   5    9.997       7.339       4.775       2.343      2.8077E-03
1
              HEAD IN LAYER   4 AT END OF TIME STEP  19 IN STRESS PERIOD    2
  ---------------------------------------------------------------------------

            1           2           3           4           5
 ............................................................
   1    9.997       7.339       4.775       2.343      2.8077E-03
   2    9.997       7.339       4.775       2.343      2.8077E-03
   3    9.997       7.339       4.775       2.343      2.8077E-03
   4    9.997       7.339       4.775       2.343      2.8077E-03
   5    9.997       7.339       4.775       2.343      2.8077E-03
1
              HEAD IN LAYER   5 AT END OF TIME STEP  19 IN STRESS PERIOD    2
  ---------------------------------------------------------------------------

            1           2           3           4           5
 ............................................................
   1    9.997       7.339       4.775       2.343      2.8077E-03
   2    9.997       7.339       4.775       2.343      2.8077E-03
   3    9.997       7.339       4.775       2.343      2.8077E-03
   4    9.997       7.339       4.775       2.343      2.8077E-03
   5    9.997       7.339       4.775       2.343      2.8077E-03

 HEAD WILL BE SAVED ON UNIT   51 AT END OF TIME STEP   19, STRESS PERIOD    2

 DRAWDOWN WILL BE SAVED ON UNIT   52 AT END OF TIME STEP   19, STRESS PERIOD    2
1
  VOLUMETRIC BUDGET FOR ENTIRE MODEL AT END OF TIME STEP   19, STRESS PERIOD   2
  ------------------------------------------------------------------------------

     CUMULATIVE VOLUMES      L**3       RATES FOR THIS TIME STEP      L**3/T
     ------------------                 ------------------------

           IN:                                      IN:
           ---                                      ---
             STORAGE =           0.0000               STORAGE =           0.0000
       CONSTANT HEAD =           0.0000         CONSTANT HEAD =           0.0000
               WELLS =           0.0000                 WELLS =           0.0000
     HEAD DEP BOUNDS =       25536.4961       HEAD DEP BOUNDS =         797.4980

            TOTAL IN =       25536.4961              TOTAL IN =         797.4980

          OUT:                                     OUT:
          ----                                     ----
             STORAGE =       14347.2139               STORAGE =          95.6712
       CONSTANT HEAD =           0.0000         CONSTANT HEAD =           0.0000
               WELLS =           0.0000                 WELLS =           0.0000
     HEAD DEP BOUNDS =       11189.3516       HEAD DEP BOUNDS =         701.9218

           TOTAL OUT =       25536.5664             TOTAL OUT =         797.5930

            IN - OUT =      -7.0312E-02              IN - OUT =      -9.4971E-02

 PERCENT DISCREPANCY =          -0.00     PERCENT DISCREPANCY =          -0.01






         TIME SUMMARY AT END OF TIME STEP   19 IN STRESS PERIOD    2
                    SECONDS     MINUTES      HOURS       DAYS        YEARS
                    -----------------------------------------------------------
   TIME STEP LENGTH  86400.      1440.0      24.000      1.0000     2.73785E-03
 STRESS PERIOD TIME 1.64160E+06  27360.      456.00      19.000     5.20192E-02
         TOTAL TIME 1.72800E+06  28800.      480.00      20.000     5.47570E-02
1
 
 SOLVING FOR HEAD 

 OUTPUT CONTROL FOR STRESS PERIOD    2   TIME STEP   20
    SAVE HEAD FOR ALL LAYERS
    SAVE DRAWDOWN FOR ALL LAYERS
    SAVE BUDGET
    PRINT HEAD FOR ALL LAYERS
    PRINT BUDGET
 UBDSV1 SAVING "         STORAGE" ON UNIT  53 AT TIME STEP 20, STRESS PERIOD   2
 UBDSV2 SAVING "   CONSTANT HEAD" ON UNIT  53 AT TIME STEP 20, STRESS PERIOD   2
 UBDSV1 SAVING "FLOW RIGHT FACE " ON UNIT  53 AT TIME STEP 20, STRESS PERIOD   2
 UBDSV1 SAVING "FLOW FRONT FACE " ON UNIT  53 AT TIME STEP 20, STRESS PERIOD   2
 UBDSV1 SAVING "FLOW LOWER FACE " ON UNIT  53 AT TIME STEP 20, STRESS PERIOD   2
1
              HEAD IN LAYER   1 AT END OF TIME STEP  20 IN STRESS PERIOD    2
  ---------------------------------------------------------------------------

            1           2           3           4           5
 ............................................................
   1    9.997       7.359       4.804       2.363      2.8319E-03
   2    9.997       7.359       4.804       2.363      2.8319E-03
   3    9.997       7.359       4.804       2.363      2.8319E-03
   4    9.997       7.359       4.804       2.363      2.8319E-03
   5    9.997       7.359       4.804       2.363      2.8319E-03
1
              HEAD IN LAYER   2 AT END OF TIME STEP  20 IN STRESS PERIOD    2
  ---------------------------------------------------------------------------

            1           2           3           4           5
 ............................................................
   1    9.997       7.359       4.804       2.363      2.8319E-03
   2    9.997       7.359       4.804       2.363      2.8319E-03
   3    9.997       7.359       4.804       2.363      2.8319E-03
   4    9.997       7.359       4.804       2.363      2.8319E-03
   5    9.997       7.359       4.804       2.363      2.8319E-03
1
              HEAD IN LAYER   3 AT END OF TIME STEP  20 IN STRESS PERIOD    2
  ---------------------------------------------------------------------------

            1           2           3           4           5
 ............................................................
   1    9.997       7.359       4.804       2.363      2.8319E-03
   2    9.997       7.359       4.804       2.363      2.8319E-03
   3    9.997       7.359       4.804       2.363      2.8319E-03
   4    9.997       7.359       4.804       2.363      2.8319E-03
   5    9.997       7.359       4.804       2.363      2.8319E-03
1
              HEAD IN LAYER   4 AT END OF TIME STEP  20 IN STRESS PERIOD    2
  ---------------------------------------------------------------------------

            1           2           3           4           5
 ............................................................
   1    9.997       7.359       4.804       2.363      2.8319E-03
   2    9.997       7.359       4.804       2.363      2.8319E-03
   3    9.997       7.359       4.804       2.363      2.8319E-03
   4    9.997       7.359       4.804       2.363      2.8319E-03
   5    9.997       7.359       4.804       2.363      2.8319E-03
1
              HEAD IN LAYER   5 AT END OF TIME STEP  20 IN STRESS PERIOD    2
  ---------------------------------------------------------------------------

            1           2           3           4           5
 ............................................................
   1    9.997       7.359       4.804       2.363      2.8319E-03
   2    9.997       7.359       4.804       2.363      2.8319E-03
   3    9.997       7.359       4.804       2.363      2.8319E-03
   4    9.997       7.359       4.804       2.363      2.8319E-03
   5    9.997       7.359       4.804       2.363      2.8319E-03

 HEAD WILL BE SAVED ON UNIT   51 AT END OF TIME STEP   20, STRESS PERIOD    2

 DRAWDOWN WILL BE SAVED ON UNIT   52 AT END OF TIME STEP   20, STRESS PERIOD    2
1
  VOLUMETRIC BUDGET FOR ENTIRE MODEL AT END OF TIME STEP   20, STRESS PERIOD   2
  ------------------------------------------------------------------------------

     CUMULATIVE VOLUMES      L**3       RATES FOR THIS TIME STEP      L**3/T
     ------------------                 ------------------------

           IN:                                      IN:
           ---                                      ---
             STORAGE =           0.0000               STORAGE =           0.0000
       CONSTANT HEAD =           0.0000         CONSTANT HEAD =           0.0000
               WELLS =           0.0000                 WELLS =           0.0000
     HEAD DEP BOUNDS =       26327.8594       HEAD DEP BOUNDS =         791.3640

            TOTAL IN =       26327.8594              TOTAL IN =         791.3640

          OUT:                                     OUT:
          ----                                     ----
             STORAGE =       14430.6709               STORAGE =          83.4570
       CONSTANT HEAD =           0.0000         CONSTANT HEAD =           0.0000
               WELLS =           0.0000                 WELLS =           0.0000
     HEAD DEP BOUNDS =       11897.3223       HEAD DEP BOUNDS =         707.9709

           TOTAL OUT =       26327.9922             TOTAL OUT =         791.4279

            IN - OUT =          -0.1328              IN - OUT =      -6.3965E-02

 PERCENT DISCREPANCY =          -0.00     PERCENT DISCREPANCY =          -0.01






         TIME SUMMARY AT END OF TIME STEP   20 IN STRESS PERIOD    2
                    SECONDS     MINUTES      HOURS       DAYS        YEARS
                    -----------------------------------------------------------
   TIME STEP LENGTH  86400.      1440.0      24.000      1.0000     2.73785E-03
 STRESS PERIOD TIME 1.72800E+06  28800.      480.00      20.000     5.47570E-02
         TOTAL TIME 1.81440E+06  30240.      504.00      21.000     5.74949E-02
1
 
 SOLVING FOR HEAD 

 OUTPUT CONTROL FOR STRESS PERIOD    2   TIME STEP   21
    SAVE HEAD FOR ALL LAYERS
    SAVE DRAWDOWN FOR ALL LAYERS
    SAVE BUDGET
    PRINT HEAD FOR ALL LAYERS
    PRINT BUDGET
 UBDSV1 SAVING "         STORAGE" ON UNIT  53 AT TIME STEP 21, STRESS PERIOD   2
 UBDSV2 SAVING "   CONSTANT HEAD" ON UNIT  53 AT TIME STEP 21, STRESS PERIOD   2
 UBDSV1 SAVING "FLOW RIGHT FACE " ON UNIT  53 AT TIME STEP 21, STRESS PERIOD   2
 UBDSV1 SAVING "FLOW FRONT FACE " ON UNIT  53 AT TIME STEP 21, STRESS PERIOD   2
 UBDSV1 SAVING "FLOW LOWER FACE " ON UNIT  53 AT TIME STEP 21, STRESS PERIOD   2
1
              HEAD IN LAYER   1 AT END OF TIME STEP  21 IN STRESS PERIOD    2
  ---------------------------------------------------------------------------

            1           2           3           4           5
 ............................................................
   1    9.997       7.377       4.829       2.380      2.8530E-03
   2    9.997       7.377       4.829       2.380      2.8530E-03
   3    9.997       7.377       4.829       2.380      2.8530E-03
   4    9.997       7.377       4.829       2.380      2.8530E-03
   5    9.997       7.377       4.829       2.380      2.8530E-03
1
              HEAD IN LAYER   2 AT END OF TIME STEP  21 IN STRESS PERIOD    2
  ---------------------------------------------------------------------------

            1           2           3           4           5
 ............................................................
   1    9.997       7.377       4.829       2.380      2.8530E-03
   2    9.997       7.377       4.829       2.380      2.8530E-03
   3    9.997       7.377       4.829       2.380      2.8530E-03
   4    9.997       7.377       4.829       2.380      2.8530E-03
   5    9.997       7.377       4.829       2.380      2.8530E-03
1
              HEAD IN LAYER   3 AT END OF TIME STEP  21 IN STRESS PERIOD    2
  ---------------------------------------------------------------------------

            1           2           3           4           5
 ............................................................
   1    9.997       7.377       4.829       2.380      2.8530E-03
   2    9.997       7.377       4.829       2.380      2.8530E-03
   3    9.997       7.377       4.829       2.380      2.8530E-03
   4    9.997       7.377       4.829       2.380      2.8530E-03
   5    9.997       7.377       4.829       2.380      2.8530E-03
1
              HEAD IN LAYER   4 AT END OF TIME STEP  21 IN STRESS PERIOD    2
  ---------------------------------------------------------------------------

            1           2           3           4           5
 ............................................................
   1    9.997       7.377       4.829       2.380      2.8530E-03
   2    9.997       7.377       4.829       2.380      2.8530E-03
   3    9.997       7.377       4.829       2.380      2.8530E-03
   4    9.997       7.377       4.829       2.380      2.8530E-03
   5    9.997       7.377       4.829       2.380      2.8530E-03
1
              HEAD IN LAYER   5 AT END OF TIME STEP  21 IN STRESS PERIOD    2
  ---------------------------------------------------------------------------

            1           2           3           4           5
 ............................................................
   1    9.997       7.377       4.829       2.380      2.8530E-03
   2    9.997       7.377       4.829       2.380      2.8530E-03
   3    9.997       7.377       4.829       2.380      2.8530E-03
   4    9.997       7.377       4.829       2.380      2.8530E-03
   5    9.997       7.377       4.829       2.380      2.8530E-03

 HEAD WILL BE SAVED ON UNIT   51 AT END OF TIME STEP   21, STRESS PERIOD    2

 DRAWDOWN WILL BE SAVED ON UNIT   52 AT END OF TIME STEP   21, STRESS PERIOD    2
1
  VOLUMETRIC BUDGET FOR ENTIRE MODEL AT END OF TIME STEP   21, STRESS PERIOD   2
  ------------------------------------------------------------------------------

     CUMULATIVE VOLUMES      L**3       RATES FOR THIS TIME STEP      L**3/T
     ------------------                 ------------------------

           IN:                                      IN:
           ---                                      ---
             STORAGE =           0.0000               STORAGE =           0.0000
       CONSTANT HEAD =           0.0000         CONSTANT HEAD =           0.0000
               WELLS =           0.0000                 WELLS =           0.0000
     HEAD DEP BOUNDS =       27113.8848       HEAD DEP BOUNDS =         786.0247

            TOTAL IN =       27113.8848              TOTAL IN =         786.0247

          OUT:                                     OUT:
          ----                                     ----
             STORAGE =       14503.4766               STORAGE =          72.8055
       CONSTANT HEAD =           0.0000         CONSTANT HEAD =           0.0000
               WELLS =           0.0000                 WELLS =           0.0000
     HEAD DEP BOUNDS =       12610.5820       HEAD DEP BOUNDS =         713.2595

           TOTAL OUT =       27114.0586             TOTAL OUT =         786.0650

            IN - OUT =          -0.1738              IN - OUT =      -4.0283E-02

 PERCENT DISCREPANCY =          -0.00     PERCENT DISCREPANCY =          -0.01






         TIME SUMMARY AT END OF TIME STEP   21 IN STRESS PERIOD    2
                    SECONDS     MINUTES      HOURS       DAYS        YEARS
                    -----------------------------------------------------------
   TIME STEP LENGTH  86400.      1440.0      24.000      1.0000     2.73785E-03
 STRESS PERIOD TIME 1.81440E+06  30240.      504.00      21.000     5.74949E-02
         TOTAL TIME 1.90080E+06  31680.      528.00      22.000     6.02327E-02
1
 
 SOLVING FOR HEAD 

 OUTPUT CONTROL FOR STRESS PERIOD    2   TIME STEP   22
    SAVE HEAD FOR ALL LAYERS
    SAVE DRAWDOWN FOR ALL LAYERS
    SAVE BUDGET
    PRINT HEAD FOR ALL LAYERS
    PRINT BUDGET
 UBDSV1 SAVING "         STORAGE" ON UNIT  53 AT TIME STEP 22, STRESS PERIOD   2
 UBDSV2 SAVING "   CONSTANT HEAD" ON UNIT  53 AT TIME STEP 22, STRESS PERIOD   2
 UBDSV1 SAVING "FLOW RIGHT FACE " ON UNIT  53 AT TIME STEP 22, STRESS PERIOD   2
 UBDSV1 SAVING "FLOW FRONT FACE " ON UNIT  53 AT TIME STEP 22, STRESS PERIOD   2
 UBDSV1 SAVING "FLOW LOWER FACE " ON UNIT  53 AT TIME STEP 22, STRESS PERIOD   2
1
              HEAD IN LAYER   1 AT END OF TIME STEP  22 IN STRESS PERIOD    2
  ---------------------------------------------------------------------------

            1           2           3           4           5
 ............................................................
   1    9.997       7.393       4.851       2.396      2.8715E-03
   2    9.997       7.393       4.851       2.396      2.8715E-03
   3    9.997       7.393       4.851       2.396      2.8715E-03
   4    9.997       7.393       4.851       2.396      2.8715E-03
   5    9.997       7.393       4.851       2.396      2.8715E-03
1
              HEAD IN LAYER   2 AT END OF TIME STEP  22 IN STRESS PERIOD    2
  ---------------------------------------------------------------------------

            1           2           3           4           5
 ............................................................
   1    9.997       7.393       4.851       2.396      2.8715E-03
   2    9.997       7.393       4.851       2.396      2.8715E-03
   3    9.997       7.393       4.851       2.396      2.8715E-03
   4    9.997       7.393       4.851       2.396      2.8715E-03
   5    9.997       7.393       4.851       2.396      2.8715E-03
1
              HEAD IN LAYER   3 AT END OF TIME STEP  22 IN STRESS PERIOD    2
  ---------------------------------------------------------------------------

            1           2           3           4           5
 ............................................................
   1    9.997       7.393       4.851       2.396      2.8715E-03
   2    9.997       7.393       4.851       2.396      2.8715E-03
   3    9.997       7.393       4.851       2.396      2.8715E-03
   4    9.997       7.393       4.851       2.396      2.8715E-03
   5    9.997       7.393       4.851       2.396      2.8715E-03
1
              HEAD IN LAYER   4 AT END OF TIME STEP  22 IN STRESS PERIOD    2
  ---------------------------------------------------------------------------

            1           2           3           4           5
 ............................................................
   1    9.997       7.393       4.851       2.396      2.8715E-03
   2    9.997       7.393       4.851       2.396      2.8715E-03
   3    9.997       7.393       4.851       2.396      2.8715E-03
   4    9.997       7.393       4.851       2.396      2.8715E-03
   5    9.997       7.393       4.851       2.396      2.8715E-03
1
              HEAD IN LAYER   5 AT END OF TIME STEP  22 IN STRESS PERIOD    2
  ---------------------------------------------------------------------------

            1           2           3           4           5
 ............................................................
   1    9.997       7.393       4.851       2.396      2.8715E-03
   2    9.997       7.393       4.851       2.396      2.8715E-03
   3    9.997       7.393       4.851       2.396      2.8715E-03
   4    9.997       7.393       4.851       2.396      2.8715E-03
   5    9.997       7.393       4.851       2.396      2.8715E-03

 HEAD WILL BE SAVED ON UNIT   51 AT END OF TIME STEP   22, STRESS PERIOD    2

 DRAWDOWN WILL BE SAVED ON UNIT   52 AT END OF TIME STEP   22, STRESS PERIOD    2
1
  VOLUMETRIC BUDGET FOR ENTIRE MODEL AT END OF TIME STEP   22, STRESS PERIOD   2
  ------------------------------------------------------------------------------

     CUMULATIVE VOLUMES      L**3       RATES FOR THIS TIME STEP      L**3/T
     ------------------                 ------------------------

           IN:                                      IN:
           ---                                      ---
             STORAGE =           0.0000               STORAGE =           0.0000
       CONSTANT HEAD =           0.0000         CONSTANT HEAD =           0.0000
               WELLS =           0.0000                 WELLS =           0.0000
     HEAD DEP BOUNDS =       27895.2598       HEAD DEP BOUNDS =         781.3746

            TOTAL IN =       27895.2598              TOTAL IN =         781.3746

          OUT:                                     OUT:
          ----                                     ----
             STORAGE =       14566.9893               STORAGE =          63.5126
       CONSTANT HEAD =           0.0000         CONSTANT HEAD =           0.0000
               WELLS =           0.0000                 WELLS =           0.0000
     HEAD DEP BOUNDS =       13328.4629       HEAD DEP BOUNDS =         717.8807

           TOTAL OUT =       27895.4531             TOTAL OUT =         781.3932

            IN - OUT =          -0.1934              IN - OUT =      -1.8677E-02

 PERCENT DISCREPANCY =          -0.00     PERCENT DISCREPANCY =          -0.00






         TIME SUMMARY AT END OF TIME STEP   22 IN STRESS PERIOD    2
                    SECONDS     MINUTES      HOURS       DAYS        YEARS
                    -----------------------------------------------------------
   TIME STEP LENGTH  86400.      1440.0      24.000      1.0000     2.73785E-03
 STRESS PERIOD TIME 1.90080E+06  31680.      528.00      22.000     6.02327E-02
         TOTAL TIME 1.98720E+06  33120.      552.00      23.000     6.29706E-02
1
 
 SOLVING FOR HEAD 

 OUTPUT CONTROL FOR STRESS PERIOD    2   TIME STEP   23
    SAVE HEAD FOR ALL LAYERS
    SAVE DRAWDOWN FOR ALL LAYERS
    SAVE BUDGET
    PRINT HEAD FOR ALL LAYERS
    PRINT BUDGET
 UBDSV1 SAVING "         STORAGE" ON UNIT  53 AT TIME STEP 23, STRESS PERIOD   2
 UBDSV2 SAVING "   CONSTANT HEAD" ON UNIT  53 AT TIME STEP 23, STRESS PERIOD   2
 UBDSV1 SAVING "FLOW RIGHT FACE " ON UNIT  53 AT TIME STEP 23, STRESS PERIOD   2
 UBDSV1 SAVING "FLOW FRONT FACE " ON UNIT  53 AT TIME STEP 23, STRESS PERIOD   2
 UBDSV1 SAVING "FLOW LOWER FACE " ON UNIT  53 AT TIME STEP 23, STRESS PERIOD   2
1
              HEAD IN LAYER   1 AT END OF TIME STEP  23 IN STRESS PERIOD    2
  ---------------------------------------------------------------------------

            1           2           3           4           5
 ............................................................
   1    9.997       7.406       4.870       2.409      2.8877E-03
   2    9.997       7.406       4.870       2.409      2.8877E-03
   3    9.997       7.406       4.870       2.409      2.8877E-03
   4    9.997       7.406       4.870       2.409      2.8877E-03
   5    9.997       7.406       4.870       2.409      2.8877E-03
1
              HEAD IN LAYER   2 AT END OF TIME STEP  23 IN STRESS PERIOD    2
  ---------------------------------------------------------------------------

            1           2           3           4           5
 ............................................................
   1    9.997       7.406       4.870       2.409      2.8877E-03
   2    9.997       7.406       4.870       2.409      2.8877E-03
   3    9.997       7.406       4.870       2.409      2.8877E-03
   4    9.997       7.406       4.870       2.409      2.8877E-03
   5    9.997       7.406       4.870       2.409      2.8877E-03
1
              HEAD IN LAYER   3 AT END OF TIME STEP  23 IN STRESS PERIOD    2
  ---------------------------------------------------------------------------

            1           2           3           4           5
 ............................................................
   1    9.997       7.406       4.870       2.409      2.8877E-03
   2    9.997       7.406       4.870       2.409      2.8877E-03
   3    9.997       7.406       4.870       2.409      2.8877E-03
   4    9.997       7.406       4.870       2.409      2.8877E-03
   5    9.997       7.406       4.870       2.409      2.8877E-03
1
              HEAD IN LAYER   4 AT END OF TIME STEP  23 IN STRESS PERIOD    2
  ---------------------------------------------------------------------------

            1           2           3           4           5
 ............................................................
   1    9.997       7.406       4.870       2.409      2.8877E-03
   2    9.997       7.406       4.870       2.409      2.8877E-03
   3    9.997       7.406       4.870       2.409      2.8877E-03
   4    9.997       7.406       4.870       2.409      2.8877E-03
   5    9.997       7.406       4.870       2.409      2.8877E-03
1
              HEAD IN LAYER   5 AT END OF TIME STEP  23 IN STRESS PERIOD    2
  ---------------------------------------------------------------------------

            1           2           3           4           5
 ............................................................
   1    9.997       7.406       4.870       2.409      2.8877E-03
   2    9.997       7.406       4.870       2.409      2.8877E-03
   3    9.997       7.406       4.870       2.409      2.8877E-03
   4    9.997       7.406       4.870       2.409      2.8877E-03
   5    9.997       7.406       4.870       2.409      2.8877E-03

 HEAD WILL BE SAVED ON UNIT   51 AT END OF TIME STEP   23, STRESS PERIOD    2

 DRAWDOWN WILL BE SAVED ON UNIT   52 AT END OF TIME STEP   23, STRESS PERIOD    2
1
  VOLUMETRIC BUDGET FOR ENTIRE MODEL AT END OF TIME STEP   23, STRESS PERIOD   2
  ------------------------------------------------------------------------------

     CUMULATIVE VOLUMES      L**3       RATES FOR THIS TIME STEP      L**3/T
     ------------------                 ------------------------

           IN:                                      IN:
           ---                                      ---
             STORAGE =           0.0000               STORAGE =           0.0000
       CONSTANT HEAD =           0.0000         CONSTANT HEAD =           0.0000
               WELLS =           0.0000                 WELLS =           0.0000
     HEAD DEP BOUNDS =       28672.5820       HEAD DEP BOUNDS =         777.3232

            TOTAL IN =       28672.5820              TOTAL IN =         777.3232

          OUT:                                     OUT:
          ----                                     ----
             STORAGE =       14622.3955               STORAGE =          55.4065
       CONSTANT HEAD =           0.0000         CONSTANT HEAD =           0.0000
               WELLS =           0.0000                 WELLS =           0.0000
     HEAD DEP BOUNDS =       14050.3799       HEAD DEP BOUNDS =         721.9173

           TOTAL OUT =       28672.7754             TOTAL OUT =         777.3238

            IN - OUT =          -0.1934              IN - OUT =      -6.1035E-04

 PERCENT DISCREPANCY =          -0.00     PERCENT DISCREPANCY =          -0.00






         TIME SUMMARY AT END OF TIME STEP   23 IN STRESS PERIOD    2
                    SECONDS     MINUTES      HOURS       DAYS        YEARS
                    -----------------------------------------------------------
   TIME STEP LENGTH  86400.      1440.0      24.000      1.0000     2.73785E-03
 STRESS PERIOD TIME 1.98720E+06  33120.      552.00      23.000     6.29706E-02
         TOTAL TIME 2.07360E+06  34560.      576.00      24.000     6.57084E-02
1
 
 SOLVING FOR HEAD 

 OUTPUT CONTROL FOR STRESS PERIOD    2   TIME STEP   24
    SAVE HEAD FOR ALL LAYERS
    SAVE DRAWDOWN FOR ALL LAYERS
    SAVE BUDGET
    PRINT HEAD FOR ALL LAYERS
    PRINT BUDGET
 UBDSV1 SAVING "         STORAGE" ON UNIT  53 AT TIME STEP 24, STRESS PERIOD   2
 UBDSV2 SAVING "   CONSTANT HEAD" ON UNIT  53 AT TIME STEP 24, STRESS PERIOD   2
 UBDSV1 SAVING "FLOW RIGHT FACE " ON UNIT  53 AT TIME STEP 24, STRESS PERIOD   2
 UBDSV1 SAVING "FLOW FRONT FACE " ON UNIT  53 AT TIME STEP 24, STRESS PERIOD   2
 UBDSV1 SAVING "FLOW LOWER FACE " ON UNIT  53 AT TIME STEP 24, STRESS PERIOD   2
1
              HEAD IN LAYER   1 AT END OF TIME STEP  24 IN STRESS PERIOD    2
  ---------------------------------------------------------------------------

            1           2           3           4           5
 ............................................................
   1    9.997       7.418       4.886       2.421      2.9018E-03
   2    9.997       7.418       4.886       2.421      2.9018E-03
   3    9.997       7.418       4.886       2.421      2.9018E-03
   4    9.997       7.418       4.886       2.421      2.9018E-03
   5    9.997       7.418       4.886       2.421      2.9018E-03
1
              HEAD IN LAYER   2 AT END OF TIME STEP  24 IN STRESS PERIOD    2
  ---------------------------------------------------------------------------

            1           2           3           4           5
 ............................................................
   1    9.997       7.418       4.886       2.421      2.9018E-03
   2    9.997       7.418       4.886       2.421      2.9018E-03
   3    9.997       7.418       4.886       2.421      2.9018E-03
   4    9.997       7.418       4.886       2.421      2.9018E-03
   5    9.997       7.418       4.886       2.421      2.9018E-03
1
              HEAD IN LAYER   3 AT END OF TIME STEP  24 IN STRESS PERIOD    2
  ---------------------------------------------------------------------------

            1           2           3           4           5
 ............................................................
   1    9.997       7.418       4.886       2.421      2.9018E-03
   2    9.997       7.418       4.886       2.421      2.9018E-03
   3    9.997       7.418       4.886       2.421      2.9018E-03
   4    9.997       7.418       4.886       2.421      2.9018E-03
   5    9.997       7.418       4.886       2.421      2.9018E-03
1
              HEAD IN LAYER   4 AT END OF TIME STEP  24 IN STRESS PERIOD    2
  ---------------------------------------------------------------------------

            1           2           3           4           5
 ............................................................
   1    9.997       7.418       4.886       2.421      2.9018E-03
   2    9.997       7.418       4.886       2.421      2.9018E-03
   3    9.997       7.418       4.886       2.421      2.9018E-03
   4    9.997       7.418       4.886       2.421      2.9018E-03
   5    9.997       7.418       4.886       2.421      2.9018E-03
1
              HEAD IN LAYER   5 AT END OF TIME STEP  24 IN STRESS PERIOD    2
  ---------------------------------------------------------------------------

            1           2           3           4           5
 ............................................................
   1    9.997       7.418       4.886       2.421      2.9018E-03
   2    9.997       7.418       4.886       2.421      2.9018E-03
   3    9.997       7.418       4.886       2.421      2.9018E-03
   4    9.997       7.418       4.886       2.421      2.9018E-03
   5    9.997       7.418       4.886       2.421      2.9018E-03

 HEAD WILL BE SAVED ON UNIT   51 AT END OF TIME STEP   24, STRESS PERIOD    2

 DRAWDOWN WILL BE SAVED ON UNIT   52 AT END OF TIME STEP   24, STRESS PERIOD    2
1
  VOLUMETRIC BUDGET FOR ENTIRE MODEL AT END OF TIME STEP   24, STRESS PERIOD   2
  ------------------------------------------------------------------------------

     CUMULATIVE VOLUMES      L**3       RATES FOR THIS TIME STEP      L**3/T
     ------------------                 ------------------------

           IN:                                      IN:
           ---                                      ---
             STORAGE =           0.0000               STORAGE =           0.0000
       CONSTANT HEAD =           0.0000         CONSTANT HEAD =           0.0000
               WELLS =           0.0000                 WELLS =           0.0000
     HEAD DEP BOUNDS =       29446.3750       HEAD DEP BOUNDS =         773.7924

            TOTAL IN =       29446.3750              TOTAL IN =         773.7924

          OUT:                                     OUT:
          ----                                     ----
             STORAGE =       14670.7295               STORAGE =          48.3342
       CONSTANT HEAD =           0.0000         CONSTANT HEAD =           0.0000
               WELLS =           0.0000                 WELLS =           0.0000
     HEAD DEP BOUNDS =       14775.8223       HEAD DEP BOUNDS =         725.4421

           TOTAL OUT =       29446.5508             TOTAL OUT =         773.7762

            IN - OUT =          -0.1758              IN - OUT =       1.6113E-02

 PERCENT DISCREPANCY =          -0.00     PERCENT DISCREPANCY =           0.00






         TIME SUMMARY AT END OF TIME STEP   24 IN STRESS PERIOD    2
                    SECONDS     MINUTES      HOURS       DAYS        YEARS
                    -----------------------------------------------------------
   TIME STEP LENGTH  86400.      1440.0      24.000      1.0000     2.73785E-03
 STRESS PERIOD TIME 2.07360E+06  34560.      576.00      24.000     6.57084E-02
         TOTAL TIME 2.16000E+06  36000.      600.00      25.000     6.84463E-02
1
 
 SOLVING FOR HEAD 

 OUTPUT CONTROL FOR STRESS PERIOD    2   TIME STEP   25
    SAVE HEAD FOR ALL LAYERS
    SAVE DRAWDOWN FOR ALL LAYERS
    SAVE BUDGET
    PRINT HEAD FOR ALL LAYERS
    PRINT BUDGET
 UBDSV1 SAVING "         STORAGE" ON UNIT  53 AT TIME STEP 25, STRESS PERIOD   2
 UBDSV2 SAVING "   CONSTANT HEAD" ON UNIT  53 AT TIME STEP 25, STRESS PERIOD   2
 UBDSV1 SAVING "FLOW RIGHT FACE " ON UNIT  53 AT TIME STEP 25, STRESS PERIOD   2
 UBDSV1 SAVING "FLOW FRONT FACE " ON UNIT  53 AT TIME STEP 25, STRESS PERIOD   2
 UBDSV1 SAVING "FLOW LOWER FACE " ON UNIT  53 AT TIME STEP 25, STRESS PERIOD   2
1
              HEAD IN LAYER   1 AT END OF TIME STEP  25 IN STRESS PERIOD    2
  ---------------------------------------------------------------------------

            1           2           3           4           5
 ............................................................
   1    9.997       7.429       4.901       2.431      2.9141E-03
   2    9.997       7.429       4.901       2.431      2.9141E-03
   3    9.997       7.429       4.901       2.431      2.9141E-03
   4    9.997       7.429       4.901       2.431      2.9141E-03
   5    9.997       7.429       4.901       2.431      2.9141E-03
1
              HEAD IN LAYER   2 AT END OF TIME STEP  25 IN STRESS PERIOD    2
  ---------------------------------------------------------------------------

            1           2           3           4           5
 ............................................................
   1    9.997       7.429       4.901       2.431      2.9141E-03
   2    9.997       7.429       4.901       2.431      2.9141E-03
   3    9.997       7.429       4.901       2.431      2.9141E-03
   4    9.997       7.429       4.901       2.431      2.9141E-03
   5    9.997       7.429       4.901       2.431      2.9141E-03
1
              HEAD IN LAYER   3 AT END OF TIME STEP  25 IN STRESS PERIOD    2
  ---------------------------------------------------------------------------

            1           2           3           4           5
 ............................................................
   1    9.997       7.429       4.901       2.431      2.9141E-03
   2    9.997       7.429       4.901       2.431      2.9141E-03
   3    9.997       7.429       4.901       2.431      2.9141E-03
   4    9.997       7.429       4.901       2.431      2.9141E-03
   5    9.997       7.429       4.901       2.431      2.9141E-03
1
              HEAD IN LAYER   4 AT END OF TIME STEP  25 IN STRESS PERIOD    2
  ---------------------------------------------------------------------------

            1           2           3           4           5
 ............................................................
   1    9.997       7.429       4.901       2.431      2.9141E-03
   2    9.997       7.429       4.901       2.431      2.9141E-03
   3    9.997       7.429       4.901       2.431      2.9141E-03
   4    9.997       7.429       4.901       2.431      2.9141E-03
   5    9.997       7.429       4.901       2.431      2.9141E-03
1
              HEAD IN LAYER   5 AT END OF TIME STEP  25 IN STRESS PERIOD    2
  ---------------------------------------------------------------------------

            1           2           3           4           5
 ............................................................
   1    9.997       7.429       4.901       2.431      2.9141E-03
   2    9.997       7.429       4.901       2.431      2.9141E-03
   3    9.997       7.429       4.901       2.431      2.9141E-03
   4    9.997       7.429       4.901       2.431      2.9141E-03
   5    9.997       7.429       4.901       2.431      2.9141E-03

 HEAD WILL BE SAVED ON UNIT   51 AT END OF TIME STEP   25, STRESS PERIOD    2

 DRAWDOWN WILL BE SAVED ON UNIT   52 AT END OF TIME STEP   25, STRESS PERIOD    2
1
  VOLUMETRIC BUDGET FOR ENTIRE MODEL AT END OF TIME STEP   25, STRESS PERIOD   2
  ------------------------------------------------------------------------------

     CUMULATIVE VOLUMES      L**3       RATES FOR THIS TIME STEP      L**3/T
     ------------------                 ------------------------

           IN:                                      IN:
           ---                                      ---
             STORAGE =           0.0000               STORAGE =           0.0000
       CONSTANT HEAD =           0.0000         CONSTANT HEAD =           0.0000
               WELLS =           0.0000                 WELLS =           0.0000
     HEAD DEP BOUNDS =       30217.0898       HEAD DEP BOUNDS =         770.7145

            TOTAL IN =       30217.0898              TOTAL IN =         770.7145

          OUT:                                     OUT:
          ----                                     ----
             STORAGE =       14712.8955               STORAGE =          42.1656
       CONSTANT HEAD =           0.0000         CONSTANT HEAD =           0.0000
               WELLS =           0.0000                 WELLS =           0.0000
     HEAD DEP BOUNDS =       15504.3418       HEAD DEP BOUNDS =         728.5193

           TOTAL OUT =       30217.2383             TOTAL OUT =         770.6849

            IN - OUT =          -0.1484              IN - OUT =       2.9602E-02

 PERCENT DISCREPANCY =          -0.00     PERCENT DISCREPANCY =           0.00






         TIME SUMMARY AT END OF TIME STEP   25 IN STRESS PERIOD    2
                    SECONDS     MINUTES      HOURS       DAYS        YEARS
                    -----------------------------------------------------------
   TIME STEP LENGTH  86400.      1440.0      24.000      1.0000     2.73785E-03
 STRESS PERIOD TIME 2.16000E+06  36000.      600.00      25.000     6.84463E-02
         TOTAL TIME 2.24640E+06  37440.      624.00      26.000     7.11841E-02
1
 
 SOLVING FOR HEAD 

 OUTPUT CONTROL FOR STRESS PERIOD    2   TIME STEP   26
    SAVE HEAD FOR ALL LAYERS
    SAVE DRAWDOWN FOR ALL LAYERS
    SAVE BUDGET
    PRINT HEAD FOR ALL LAYERS
    PRINT BUDGET
 UBDSV1 SAVING "         STORAGE" ON UNIT  53 AT TIME STEP 26, STRESS PERIOD   2
 UBDSV2 SAVING "   CONSTANT HEAD" ON UNIT  53 AT TIME STEP 26, STRESS PERIOD   2
 UBDSV1 SAVING "FLOW RIGHT FACE " ON UNIT  53 AT TIME STEP 26, STRESS PERIOD   2
 UBDSV1 SAVING "FLOW FRONT FACE " ON UNIT  53 AT TIME STEP 26, STRESS PERIOD   2
 UBDSV1 SAVING "FLOW LOWER FACE " ON UNIT  53 AT TIME STEP 26, STRESS PERIOD   2
1
              HEAD IN LAYER   1 AT END OF TIME STEP  26 IN STRESS PERIOD    2
  ---------------------------------------------------------------------------

            1           2           3           4           5
 ............................................................
   1    9.997       7.438       4.914       2.440      2.9248E-03
   2    9.997       7.438       4.914       2.440      2.9248E-03
   3    9.997       7.438       4.914       2.440      2.9248E-03
   4    9.997       7.438       4.914       2.440      2.9248E-03
   5    9.997       7.438       4.914       2.440      2.9248E-03
1
              HEAD IN LAYER   2 AT END OF TIME STEP  26 IN STRESS PERIOD    2
  ---------------------------------------------------------------------------

            1           2           3           4           5
 ............................................................
   1    9.997       7.438       4.914       2.440      2.9248E-03
   2    9.997       7.438       4.914       2.440      2.9248E-03
   3    9.997       7.438       4.914       2.440      2.9248E-03
   4    9.997       7.438       4.914       2.440      2.9248E-03
   5    9.997       7.438       4.914       2.440      2.9248E-03
1
              HEAD IN LAYER   3 AT END OF TIME STEP  26 IN STRESS PERIOD    2
  ---------------------------------------------------------------------------

            1           2           3           4           5
 ............................................................
   1    9.997       7.438       4.914       2.440      2.9248E-03
   2    9.997       7.438       4.914       2.440      2.9248E-03
   3    9.997       7.438       4.914       2.440      2.9248E-03
   4    9.997       7.438       4.914       2.440      2.9248E-03
   5    9.997       7.438       4.914       2.440      2.9248E-03
1
              HEAD IN LAYER   4 AT END OF TIME STEP  26 IN STRESS PERIOD    2
  ---------------------------------------------------------------------------

            1           2           3           4           5
 ............................................................
   1    9.997       7.438       4.914       2.440      2.9248E-03
   2    9.997       7.438       4.914       2.440      2.9248E-03
   3    9.997       7.438       4.914       2.440      2.9248E-03
   4    9.997       7.438       4.914       2.440      2.9248E-03
   5    9.997       7.438       4.914       2.440      2.9248E-03
1
              HEAD IN LAYER   5 AT END OF TIME STEP  26 IN STRESS PERIOD    2
  ---------------------------------------------------------------------------

            1           2           3           4           5
 ............................................................
   1    9.997       7.438       4.914       2.440      2.9248E-03
   2    9.997       7.438       4.914       2.440      2.9248E-03
   3    9.997       7.438       4.914       2.440      2.9248E-03
   4    9.997       7.438       4.914       2.440      2.9248E-03
   5    9.997       7.438       4.914       2.440      2.9248E-03

 HEAD WILL BE SAVED ON UNIT   51 AT END OF TIME STEP   26, STRESS PERIOD    2

 DRAWDOWN WILL BE SAVED ON UNIT   52 AT END OF TIME STEP   26, STRESS PERIOD    2
1
  VOLUMETRIC BUDGET FOR ENTIRE MODEL AT END OF TIME STEP   26, STRESS PERIOD   2
  ------------------------------------------------------------------------------

     CUMULATIVE VOLUMES      L**3       RATES FOR THIS TIME STEP      L**3/T
     ------------------                 ------------------------

           IN:                                      IN:
           ---                                      ---
             STORAGE =           0.0000               STORAGE =           0.0000
       CONSTANT HEAD =           0.0000         CONSTANT HEAD =           0.0000
               WELLS =           0.0000                 WELLS =           0.0000
     HEAD DEP BOUNDS =       30985.1211       HEAD DEP BOUNDS =         768.0311

            TOTAL IN =       30985.1211              TOTAL IN =         768.0311

          OUT:                                     OUT:
          ----                                     ----
             STORAGE =       14749.6797               STORAGE =          36.7839
       CONSTANT HEAD =           0.0000         CONSTANT HEAD =           0.0000
               WELLS =           0.0000                 WELLS =           0.0000
     HEAD DEP BOUNDS =       16235.5469       HEAD DEP BOUNDS =         731.2053

           TOTAL OUT =       30985.2266             TOTAL OUT =         767.9891

            IN - OUT =          -0.1055              IN - OUT =       4.1931E-02

 PERCENT DISCREPANCY =          -0.00     PERCENT DISCREPANCY =           0.01






         TIME SUMMARY AT END OF TIME STEP   26 IN STRESS PERIOD    2
                    SECONDS     MINUTES      HOURS       DAYS        YEARS
                    -----------------------------------------------------------
   TIME STEP LENGTH  86400.      1440.0      24.000      1.0000     2.73785E-03
 STRESS PERIOD TIME 2.24640E+06  37440.      624.00      26.000     7.11841E-02
         TOTAL TIME 2.33280E+06  38880.      648.00      27.000     7.39220E-02
1
 
 SOLVING FOR HEAD 

 OUTPUT CONTROL FOR STRESS PERIOD    2   TIME STEP   27
    SAVE HEAD FOR ALL LAYERS
    SAVE DRAWDOWN FOR ALL LAYERS
    SAVE BUDGET
    PRINT HEAD FOR ALL LAYERS
    PRINT BUDGET
 UBDSV1 SAVING "         STORAGE" ON UNIT  53 AT TIME STEP 27, STRESS PERIOD   2
 UBDSV2 SAVING "   CONSTANT HEAD" ON UNIT  53 AT TIME STEP 27, STRESS PERIOD   2
 UBDSV1 SAVING "FLOW RIGHT FACE " ON UNIT  53 AT TIME STEP 27, STRESS PERIOD   2
 UBDSV1 SAVING "FLOW FRONT FACE " ON UNIT  53 AT TIME STEP 27, STRESS PERIOD   2
 UBDSV1 SAVING "FLOW LOWER FACE " ON UNIT  53 AT TIME STEP 27, STRESS PERIOD   2
1
              HEAD IN LAYER   1 AT END OF TIME STEP  27 IN STRESS PERIOD    2
  ---------------------------------------------------------------------------

            1           2           3           4           5
 ............................................................
   1    9.997       7.445       4.925       2.448      2.9342E-03
   2    9.997       7.445       4.925       2.448      2.9342E-03
   3    9.997       7.445       4.925       2.448      2.9342E-03
   4    9.997       7.445       4.925       2.448      2.9342E-03
   5    9.997       7.445       4.925       2.448      2.9342E-03
1
              HEAD IN LAYER   2 AT END OF TIME STEP  27 IN STRESS PERIOD    2
  ---------------------------------------------------------------------------

            1           2           3           4           5
 ............................................................
   1    9.997       7.445       4.925       2.448      2.9342E-03
   2    9.997       7.445       4.925       2.448      2.9342E-03
   3    9.997       7.445       4.925       2.448      2.9342E-03
   4    9.997       7.445       4.925       2.448      2.9342E-03
   5    9.997       7.445       4.925       2.448      2.9342E-03
1
              HEAD IN LAYER   3 AT END OF TIME STEP  27 IN STRESS PERIOD    2
  ---------------------------------------------------------------------------

            1           2           3           4           5
 ............................................................
   1    9.997       7.445       4.925       2.448      2.9342E-03
   2    9.997       7.445       4.925       2.448      2.9342E-03
   3    9.997       7.445       4.925       2.448      2.9342E-03
   4    9.997       7.445       4.925       2.448      2.9342E-03
   5    9.997       7.445       4.925       2.448      2.9342E-03
1
              HEAD IN LAYER   4 AT END OF TIME STEP  27 IN STRESS PERIOD    2
  ---------------------------------------------------------------------------

            1           2           3           4           5
 ............................................................
   1    9.997       7.445       4.925       2.448      2.9342E-03
   2    9.997       7.445       4.925       2.448      2.9342E-03
   3    9.997       7.445       4.925       2.448      2.9342E-03
   4    9.997       7.445       4.925       2.448      2.9342E-03
   5    9.997       7.445       4.925       2.448      2.9342E-03
1
              HEAD IN LAYER   5 AT END OF TIME STEP  27 IN STRESS PERIOD    2
  ---------------------------------------------------------------------------

            1           2           3           4           5
 ............................................................
   1    9.997       7.445       4.925       2.448      2.9342E-03
   2    9.997       7.445       4.925       2.448      2.9342E-03
   3    9.997       7.445       4.925       2.448      2.9342E-03
   4    9.997       7.445       4.925       2.448      2.9342E-03
   5    9.997       7.445       4.925       2.448      2.9342E-03

 HEAD WILL BE SAVED ON UNIT   51 AT END OF TIME STEP   27, STRESS PERIOD    2

 DRAWDOWN WILL BE SAVED ON UNIT   52 AT END OF TIME STEP   27, STRESS PERIOD    2
1
  VOLUMETRIC BUDGET FOR ENTIRE MODEL AT END OF TIME STEP   27, STRESS PERIOD   2
  ------------------------------------------------------------------------------

     CUMULATIVE VOLUMES      L**3       RATES FOR THIS TIME STEP      L**3/T
     ------------------                 ------------------------

           IN:                                      IN:
           ---                                      ---
             STORAGE =           0.0000               STORAGE =           0.0000
       CONSTANT HEAD =           0.0000         CONSTANT HEAD =           0.0000
               WELLS =           0.0000                 WELLS =           0.0000
     HEAD DEP BOUNDS =       31750.8125       HEAD DEP BOUNDS =         765.6910

            TOTAL IN =       31750.8125              TOTAL IN =         765.6910

          OUT:                                     OUT:
          ----                                     ----
             STORAGE =       14781.7686               STORAGE =          32.0888
       CONSTANT HEAD =           0.0000         CONSTANT HEAD =           0.0000
               WELLS =           0.0000                 WELLS =           0.0000
     HEAD DEP BOUNDS =       16969.0957       HEAD DEP BOUNDS =         733.5495

           TOTAL OUT =       31750.8633             TOTAL OUT =         765.6382

            IN - OUT =      -5.0781E-02              IN - OUT =       5.2795E-02

 PERCENT DISCREPANCY =          -0.00     PERCENT DISCREPANCY =           0.01






         TIME SUMMARY AT END OF TIME STEP   27 IN STRESS PERIOD    2
                    SECONDS     MINUTES      HOURS       DAYS        YEARS
                    -----------------------------------------------------------
   TIME STEP LENGTH  86400.      1440.0      24.000      1.0000     2.73785E-03
 STRESS PERIOD TIME 2.33280E+06  38880.      648.00      27.000     7.39220E-02
         TOTAL TIME 2.41920E+06  40320.      672.00      28.000     7.66598E-02
1
 
 SOLVING FOR HEAD 

 OUTPUT CONTROL FOR STRESS PERIOD    2   TIME STEP   28
    SAVE HEAD FOR ALL LAYERS
    SAVE DRAWDOWN FOR ALL LAYERS
    SAVE BUDGET
    PRINT HEAD FOR ALL LAYERS
    PRINT BUDGET
 UBDSV1 SAVING "         STORAGE" ON UNIT  53 AT TIME STEP 28, STRESS PERIOD   2
 UBDSV2 SAVING "   CONSTANT HEAD" ON UNIT  53 AT TIME STEP 28, STRESS PERIOD   2
 UBDSV1 SAVING "FLOW RIGHT FACE " ON UNIT  53 AT TIME STEP 28, STRESS PERIOD   2
 UBDSV1 SAVING "FLOW FRONT FACE " ON UNIT  53 AT TIME STEP 28, STRESS PERIOD   2
 UBDSV1 SAVING "FLOW LOWER FACE " ON UNIT  53 AT TIME STEP 28, STRESS PERIOD   2
1
              HEAD IN LAYER   1 AT END OF TIME STEP  28 IN STRESS PERIOD    2
  ---------------------------------------------------------------------------

            1           2           3           4           5
 ............................................................
   1    9.997       7.452       4.934       2.455      2.9424E-03
   2    9.997       7.452       4.934       2.455      2.9424E-03
   3    9.997       7.452       4.934       2.455      2.9424E-03
   4    9.997       7.452       4.934       2.455      2.9424E-03
   5    9.997       7.452       4.934       2.455      2.9424E-03
1
              HEAD IN LAYER   2 AT END OF TIME STEP  28 IN STRESS PERIOD    2
  ---------------------------------------------------------------------------

            1           2           3           4           5
 ............................................................
   1    9.997       7.452       4.934       2.455      2.9424E-03
   2    9.997       7.452       4.934       2.455      2.9424E-03
   3    9.997       7.452       4.934       2.455      2.9424E-03
   4    9.997       7.452       4.934       2.455      2.9424E-03
   5    9.997       7.452       4.934       2.455      2.9424E-03
1
              HEAD IN LAYER   3 AT END OF TIME STEP  28 IN STRESS PERIOD    2
  ---------------------------------------------------------------------------

            1           2           3           4           5
 ............................................................
   1    9.997       7.452       4.934       2.455      2.9424E-03
   2    9.997       7.452       4.934       2.455      2.9424E-03
   3    9.997       7.452       4.934       2.455      2.9424E-03
   4    9.997       7.452       4.934       2.455      2.9424E-03
   5    9.997       7.452       4.934       2.455      2.9424E-03
1
              HEAD IN LAYER   4 AT END OF TIME STEP  28 IN STRESS PERIOD    2
  ---------------------------------------------------------------------------

            1           2           3           4           5
 ............................................................
   1    9.997       7.452       4.934       2.455      2.9424E-03
   2    9.997       7.452       4.934       2.455      2.9424E-03
   3    9.997       7.452       4.934       2.455      2.9424E-03
   4    9.997       7.452       4.934       2.455      2.9424E-03
   5    9.997       7.452       4.934       2.455      2.9424E-03
1
              HEAD IN LAYER   5 AT END OF TIME STEP  28 IN STRESS PERIOD    2
  ---------------------------------------------------------------------------

            1           2           3           4           5
 ............................................................
   1    9.997       7.452       4.934       2.455      2.9424E-03
   2    9.997       7.452       4.934       2.455      2.9424E-03
   3    9.997       7.452       4.934       2.455      2.9424E-03
   4    9.997       7.452       4.934       2.455      2.9424E-03
   5    9.997       7.452       4.934       2.455      2.9424E-03

 HEAD WILL BE SAVED ON UNIT   51 AT END OF TIME STEP   28, STRESS PERIOD    2

 DRAWDOWN WILL BE SAVED ON UNIT   52 AT END OF TIME STEP   28, STRESS PERIOD    2
1
  VOLUMETRIC BUDGET FOR ENTIRE MODEL AT END OF TIME STEP   28, STRESS PERIOD   2
  ------------------------------------------------------------------------------

     CUMULATIVE VOLUMES      L**3       RATES FOR THIS TIME STEP      L**3/T
     ------------------                 ------------------------

           IN:                                      IN:
           ---                                      ---
             STORAGE =           0.0000               STORAGE =           0.0000
       CONSTANT HEAD =           0.0000         CONSTANT HEAD =           0.0000
               WELLS =           0.0000                 WELLS =           0.0000
     HEAD DEP BOUNDS =       32514.4629       HEAD DEP BOUNDS =         763.6504

            TOTAL IN =       32514.4629              TOTAL IN =         763.6504

          OUT:                                     OUT:
          ----                                     ----
             STORAGE =       14809.7617               STORAGE =          27.9932
       CONSTANT HEAD =           0.0000         CONSTANT HEAD =           0.0000
               WELLS =           0.0000                 WELLS =           0.0000
     HEAD DEP BOUNDS =       17704.6914       HEAD DEP BOUNDS =         735.5952

           TOTAL OUT =       32514.4531             TOTAL OUT =         763.5884

            IN - OUT =       9.7656E-03              IN - OUT =       6.1951E-02

 PERCENT DISCREPANCY =           0.00     PERCENT DISCREPANCY =           0.01






         TIME SUMMARY AT END OF TIME STEP   28 IN STRESS PERIOD    2
                    SECONDS     MINUTES      HOURS       DAYS        YEARS
                    -----------------------------------------------------------
   TIME STEP LENGTH  86400.      1440.0      24.000      1.0000     2.73785E-03
 STRESS PERIOD TIME 2.41920E+06  40320.      672.00      28.000     7.66598E-02
         TOTAL TIME 2.50560E+06  41760.      696.00      29.000     7.93977E-02
1
 
 SOLVING FOR HEAD 

 OUTPUT CONTROL FOR STRESS PERIOD    2   TIME STEP   29
    SAVE HEAD FOR ALL LAYERS
    SAVE DRAWDOWN FOR ALL LAYERS
    SAVE BUDGET
    PRINT HEAD FOR ALL LAYERS
    PRINT BUDGET
 UBDSV1 SAVING "         STORAGE" ON UNIT  53 AT TIME STEP 29, STRESS PERIOD   2
 UBDSV2 SAVING "   CONSTANT HEAD" ON UNIT  53 AT TIME STEP 29, STRESS PERIOD   2
 UBDSV1 SAVING "FLOW RIGHT FACE " ON UNIT  53 AT TIME STEP 29, STRESS PERIOD   2
 UBDSV1 SAVING "FLOW FRONT FACE " ON UNIT  53 AT TIME STEP 29, STRESS PERIOD   2
 UBDSV1 SAVING "FLOW LOWER FACE " ON UNIT  53 AT TIME STEP 29, STRESS PERIOD   2
1
              HEAD IN LAYER   1 AT END OF TIME STEP  29 IN STRESS PERIOD    2
  ---------------------------------------------------------------------------

            1           2           3           4           5
 ............................................................
   1    9.997       7.458       4.943       2.461      2.9495E-03
   2    9.997       7.458       4.943       2.461      2.9495E-03
   3    9.997       7.458       4.943       2.461      2.9495E-03
   4    9.997       7.458       4.943       2.461      2.9495E-03
   5    9.997       7.458       4.943       2.461      2.9495E-03
1
              HEAD IN LAYER   2 AT END OF TIME STEP  29 IN STRESS PERIOD    2
  ---------------------------------------------------------------------------

            1           2           3           4           5
 ............................................................
   1    9.997       7.458       4.943       2.461      2.9495E-03
   2    9.997       7.458       4.943       2.461      2.9495E-03
   3    9.997       7.458       4.943       2.461      2.9495E-03
   4    9.997       7.458       4.943       2.461      2.9495E-03
   5    9.997       7.458       4.943       2.461      2.9495E-03
1
              HEAD IN LAYER   3 AT END OF TIME STEP  29 IN STRESS PERIOD    2
  ---------------------------------------------------------------------------

            1           2           3           4           5
 ............................................................
   1    9.997       7.458       4.943       2.461      2.9495E-03
   2    9.997       7.458       4.943       2.461      2.9495E-03
   3    9.997       7.458       4.943       2.461      2.9495E-03
   4    9.997       7.458       4.943       2.461      2.9495E-03
   5    9.997       7.458       4.943       2.461      2.9495E-03
1
              HEAD IN LAYER   4 AT END OF TIME STEP  29 IN STRESS PERIOD    2
  ---------------------------------------------------------------------------

            1           2           3           4           5
 ............................................................
   1    9.997       7.458       4.943       2.461      2.9495E-03
   2    9.997       7.458       4.943       2.461      2.9495E-03
   3    9.997       7.458       4.943       2.461      2.9495E-03
   4    9.997       7.458       4.943       2.461      2.9495E-03
   5    9.997       7.458       4.943       2.461      2.9495E-03
1
              HEAD IN LAYER   5 AT END OF TIME STEP  29 IN STRESS PERIOD    2
  ---------------------------------------------------------------------------

            1           2           3           4           5
 ............................................................
   1    9.997       7.458       4.943       2.461      2.9495E-03
   2    9.997       7.458       4.943       2.461      2.9495E-03
   3    9.997       7.458       4.943       2.461      2.9495E-03
   4    9.997       7.458       4.943       2.461      2.9495E-03
   5    9.997       7.458       4.943       2.461      2.9495E-03

 HEAD WILL BE SAVED ON UNIT   51 AT END OF TIME STEP   29, STRESS PERIOD    2

 DRAWDOWN WILL BE SAVED ON UNIT   52 AT END OF TIME STEP   29, STRESS PERIOD    2
1
  VOLUMETRIC BUDGET FOR ENTIRE MODEL AT END OF TIME STEP   29, STRESS PERIOD   2
  ------------------------------------------------------------------------------

     CUMULATIVE VOLUMES      L**3       RATES FOR THIS TIME STEP      L**3/T
     ------------------                 ------------------------

           IN:                                      IN:
           ---                                      ---
             STORAGE =           0.0000               STORAGE =           0.0000
       CONSTANT HEAD =           0.0000         CONSTANT HEAD =           0.0000
               WELLS =           0.0000                 WELLS =           0.0000
     HEAD DEP BOUNDS =       33276.3320       HEAD DEP BOUNDS =         761.8707

            TOTAL IN =       33276.3320              TOTAL IN =         761.8707

          OUT:                                     OUT:
          ----                                     ----
             STORAGE =       14834.1816               STORAGE =          24.4197
       CONSTANT HEAD =           0.0000         CONSTANT HEAD =           0.0000
               WELLS =           0.0000                 WELLS =           0.0000
     HEAD DEP BOUNDS =       18442.0723       HEAD DEP BOUNDS =         737.3802

           TOTAL OUT =       33276.2539             TOTAL OUT =         761.7999

            IN - OUT =       7.8125E-02              IN - OUT =       7.0801E-02

 PERCENT DISCREPANCY =           0.00     PERCENT DISCREPANCY =           0.01






         TIME SUMMARY AT END OF TIME STEP   29 IN STRESS PERIOD    2
                    SECONDS     MINUTES      HOURS       DAYS        YEARS
                    -----------------------------------------------------------
   TIME STEP LENGTH  86400.      1440.0      24.000      1.0000     2.73785E-03
 STRESS PERIOD TIME 2.50560E+06  41760.      696.00      29.000     7.93977E-02
         TOTAL TIME 2.59200E+06  43200.      720.00      30.000     8.21355E-02
1
 
 SOLVING FOR HEAD 

 OUTPUT CONTROL FOR STRESS PERIOD    2   TIME STEP   30
    SAVE HEAD FOR ALL LAYERS
    SAVE DRAWDOWN FOR ALL LAYERS
    SAVE BUDGET
    PRINT HEAD FOR ALL LAYERS
    PRINT BUDGET
 UBDSV1 SAVING "         STORAGE" ON UNIT  53 AT TIME STEP 30, STRESS PERIOD   2
 UBDSV2 SAVING "   CONSTANT HEAD" ON UNIT  53 AT TIME STEP 30, STRESS PERIOD   2
 UBDSV1 SAVING "FLOW RIGHT FACE " ON UNIT  53 AT TIME STEP 30, STRESS PERIOD   2
 UBDSV1 SAVING "FLOW FRONT FACE " ON UNIT  53 AT TIME STEP 30, STRESS PERIOD   2
 UBDSV1 SAVING "FLOW LOWER FACE " ON UNIT  53 AT TIME STEP 30, STRESS PERIOD   2
1
              HEAD IN LAYER   1 AT END OF TIME STEP  30 IN STRESS PERIOD    2
  ---------------------------------------------------------------------------

            1           2           3           4           5
 ............................................................
   1    9.997       7.463       4.950       2.466      2.9558E-03
   2    9.997       7.463       4.950       2.466      2.9558E-03
   3    9.997       7.463       4.950       2.466      2.9558E-03
   4    9.997       7.463       4.950       2.466      2.9558E-03
   5    9.997       7.463       4.950       2.466      2.9558E-03
1
              HEAD IN LAYER   2 AT END OF TIME STEP  30 IN STRESS PERIOD    2
  ---------------------------------------------------------------------------

            1           2           3           4           5
 ............................................................
   1    9.997       7.463       4.950       2.466      2.9558E-03
   2    9.997       7.463       4.950       2.466      2.9558E-03
   3    9.997       7.463       4.950       2.466      2.9558E-03
   4    9.997       7.463       4.950       2.466      2.9558E-03
   5    9.997       7.463       4.950       2.466      2.9558E-03
1
              HEAD IN LAYER   3 AT END OF TIME STEP  30 IN STRESS PERIOD    2
  ---------------------------------------------------------------------------

            1           2           3           4           5
 ............................................................
   1    9.997       7.463       4.950       2.466      2.9558E-03
   2    9.997       7.463       4.950       2.466      2.9558E-03
   3    9.997       7.463       4.950       2.466      2.9558E-03
   4    9.997       7.463       4.950       2.466      2.9558E-03
   5    9.997       7.463       4.950       2.466      2.9558E-03
1
              HEAD IN LAYER   4 AT END OF TIME STEP  30 IN STRESS PERIOD    2
  ---------------------------------------------------------------------------

            1           2           3           4           5
 ............................................................
   1    9.997       7.463       4.950       2.466      2.9558E-03
   2    9.997       7.463       4.950       2.466      2.9558E-03
   3    9.997       7.463       4.950       2.466      2.9558E-03
   4    9.997       7.463       4.950       2.466      2.9558E-03
   5    9.997       7.463       4.950       2.466      2.9558E-03
1
              HEAD IN LAYER   5 AT END OF TIME STEP  30 IN STRESS PERIOD    2
  ---------------------------------------------------------------------------

            1           2           3           4           5
 ............................................................
   1    9.997       7.463       4.950       2.466      2.9558E-03
   2    9.997       7.463       4.950       2.466      2.9558E-03
   3    9.997       7.463       4.950       2.466      2.9558E-03
   4    9.997       7.463       4.950       2.466      2.9558E-03
   5    9.997       7.463       4.950       2.466      2.9558E-03

 HEAD WILL BE SAVED ON UNIT   51 AT END OF TIME STEP   30, STRESS PERIOD    2

 DRAWDOWN WILL BE SAVED ON UNIT   52 AT END OF TIME STEP   30, STRESS PERIOD    2
1
  VOLUMETRIC BUDGET FOR ENTIRE MODEL AT END OF TIME STEP   30, STRESS PERIOD   2
  ------------------------------------------------------------------------------

     CUMULATIVE VOLUMES      L**3       RATES FOR THIS TIME STEP      L**3/T
     ------------------                 ------------------------

           IN:                                      IN:
           ---                                      ---
             STORAGE =           0.0000               STORAGE =           0.0000
       CONSTANT HEAD =           0.0000         CONSTANT HEAD =           0.0000
               WELLS =           0.0000                 WELLS =           0.0000
     HEAD DEP BOUNDS =       34036.6484       HEAD DEP BOUNDS =         760.3184

            TOTAL IN =       34036.6484              TOTAL IN =         760.3184

          OUT:                                     OUT:
          ----                                     ----
             STORAGE =       14855.4844               STORAGE =          21.3032
       CONSTANT HEAD =           0.0000         CONSTANT HEAD =           0.0000
               WELLS =           0.0000                 WELLS =           0.0000
     HEAD DEP BOUNDS =       19181.0098       HEAD DEP BOUNDS =         738.9377

           TOTAL OUT =       34036.4922             TOTAL OUT =         760.2410

            IN - OUT =           0.1562              IN - OUT =       7.7393E-02

 PERCENT DISCREPANCY =           0.00     PERCENT DISCREPANCY =           0.01






         TIME SUMMARY AT END OF TIME STEP   30 IN STRESS PERIOD    2
                    SECONDS     MINUTES      HOURS       DAYS        YEARS
                    -----------------------------------------------------------
   TIME STEP LENGTH  86400.      1440.0      24.000      1.0000     2.73785E-03
 STRESS PERIOD TIME 2.59200E+06  43200.      720.00      30.000     8.21355E-02
         TOTAL TIME 2.67840E+06  44640.      744.00      31.000     8.48734E-02
1
 
 SOLVING FOR HEAD 

 OUTPUT CONTROL FOR STRESS PERIOD    2   TIME STEP   31
    SAVE HEAD FOR ALL LAYERS
    SAVE DRAWDOWN FOR ALL LAYERS
    SAVE BUDGET
    PRINT HEAD FOR ALL LAYERS
    PRINT BUDGET
 UBDSV1 SAVING "         STORAGE" ON UNIT  53 AT TIME STEP 31, STRESS PERIOD   2
 UBDSV2 SAVING "   CONSTANT HEAD" ON UNIT  53 AT TIME STEP 31, STRESS PERIOD   2
 UBDSV1 SAVING "FLOW RIGHT FACE " ON UNIT  53 AT TIME STEP 31, STRESS PERIOD   2
 UBDSV1 SAVING "FLOW FRONT FACE " ON UNIT  53 AT TIME STEP 31, STRESS PERIOD   2
 UBDSV1 SAVING "FLOW LOWER FACE " ON UNIT  53 AT TIME STEP 31, STRESS PERIOD   2
1
              HEAD IN LAYER   1 AT END OF TIME STEP  31 IN STRESS PERIOD    2
  ---------------------------------------------------------------------------

            1           2           3           4           5
 ............................................................
   1    9.997       7.468       4.956       2.471      2.9612E-03
   2    9.997       7.468       4.956       2.471      2.9612E-03
   3    9.997       7.468       4.956       2.471      2.9612E-03
   4    9.997       7.468       4.956       2.471      2.9612E-03
   5    9.997       7.468       4.956       2.471      2.9612E-03
1
              HEAD IN LAYER   2 AT END OF TIME STEP  31 IN STRESS PERIOD    2
  ---------------------------------------------------------------------------

            1           2           3           4           5
 ............................................................
   1    9.997       7.468       4.956       2.471      2.9612E-03
   2    9.997       7.468       4.956       2.471      2.9612E-03
   3    9.997       7.468       4.956       2.471      2.9612E-03
   4    9.997       7.468       4.956       2.471      2.9612E-03
   5    9.997       7.468       4.956       2.471      2.9612E-03
1
              HEAD IN LAYER   3 AT END OF TIME STEP  31 IN STRESS PERIOD    2
  ---------------------------------------------------------------------------

            1           2           3           4           5
 ............................................................
   1    9.997       7.468       4.956       2.471      2.9612E-03
   2    9.997       7.468       4.956       2.471      2.9612E-03
   3    9.997       7.468       4.956       2.471      2.9612E-03
   4    9.997       7.468       4.956       2.471      2.9612E-03
   5    9.997       7.468       4.956       2.471      2.9612E-03
1
              HEAD IN LAYER   4 AT END OF TIME STEP  31 IN STRESS PERIOD    2
  ---------------------------------------------------------------------------

            1           2           3           4           5
 ............................................................
   1    9.997       7.468       4.956       2.471      2.9612E-03
   2    9.997       7.468       4.956       2.471      2.9612E-03
   3    9.997       7.468       4.956       2.471      2.9612E-03
   4    9.997       7.468       4.956       2.471      2.9612E-03
   5    9.997       7.468       4.956       2.471      2.9612E-03
1
              HEAD IN LAYER   5 AT END OF TIME STEP  31 IN STRESS PERIOD    2
  ---------------------------------------------------------------------------

            1           2           3           4           5
 ............................................................
   1    9.997       7.468       4.956       2.471      2.9612E-03
   2    9.997       7.468       4.956       2.471      2.9612E-03
   3    9.997       7.468       4.956       2.471      2.9612E-03
   4    9.997       7.468       4.956       2.471      2.9612E-03
   5    9.997       7.468       4.956       2.471      2.9612E-03

 HEAD WILL BE SAVED ON UNIT   51 AT END OF TIME STEP   31, STRESS PERIOD    2

 DRAWDOWN WILL BE SAVED ON UNIT   52 AT END OF TIME STEP   31, STRESS PERIOD    2
1
  VOLUMETRIC BUDGET FOR ENTIRE MODEL AT END OF TIME STEP   31, STRESS PERIOD   2
  ------------------------------------------------------------------------------

     CUMULATIVE VOLUMES      L**3       RATES FOR THIS TIME STEP      L**3/T
     ------------------                 ------------------------

           IN:                                      IN:
           ---                                      ---
             STORAGE =           0.0000               STORAGE =           0.0000
       CONSTANT HEAD =           0.0000         CONSTANT HEAD =           0.0000
               WELLS =           0.0000                 WELLS =           0.0000
     HEAD DEP BOUNDS =       34795.6133       HEAD DEP BOUNDS =         758.9644

            TOTAL IN =       34795.6133              TOTAL IN =         758.9644

          OUT:                                     OUT:
          ----                                     ----
             STORAGE =       14874.0684               STORAGE =          18.5843
       CONSTANT HEAD =           0.0000         CONSTANT HEAD =           0.0000
               WELLS =           0.0000                 WELLS =           0.0000
     HEAD DEP BOUNDS =       19921.3066       HEAD DEP BOUNDS =         740.2966

           TOTAL OUT =       34795.3750             TOTAL OUT =         758.8809

            IN - OUT =           0.2383              IN - OUT =       8.3496E-02

 PERCENT DISCREPANCY =           0.00     PERCENT DISCREPANCY =           0.01






         TIME SUMMARY AT END OF TIME STEP   31 IN STRESS PERIOD    2
                    SECONDS     MINUTES      HOURS       DAYS        YEARS
                    -----------------------------------------------------------
   TIME STEP LENGTH  86400.      1440.0      24.000      1.0000     2.73785E-03
 STRESS PERIOD TIME 2.67840E+06  44640.      744.00      31.000     8.48734E-02
         TOTAL TIME 2.76480E+06  46080.      768.00      32.000     8.76112E-02
1
 
 SOLVING FOR HEAD 

 OUTPUT CONTROL FOR STRESS PERIOD    2   TIME STEP   32
    SAVE HEAD FOR ALL LAYERS
    SAVE DRAWDOWN FOR ALL LAYERS
    SAVE BUDGET
    PRINT HEAD FOR ALL LAYERS
    PRINT BUDGET
 UBDSV1 SAVING "         STORAGE" ON UNIT  53 AT TIME STEP 32, STRESS PERIOD   2
 UBDSV2 SAVING "   CONSTANT HEAD" ON UNIT  53 AT TIME STEP 32, STRESS PERIOD   2
 UBDSV1 SAVING "FLOW RIGHT FACE " ON UNIT  53 AT TIME STEP 32, STRESS PERIOD   2
 UBDSV1 SAVING "FLOW FRONT FACE " ON UNIT  53 AT TIME STEP 32, STRESS PERIOD   2
 UBDSV1 SAVING "FLOW LOWER FACE " ON UNIT  53 AT TIME STEP 32, STRESS PERIOD   2
1
              HEAD IN LAYER   1 AT END OF TIME STEP  32 IN STRESS PERIOD    2
  ---------------------------------------------------------------------------

            1           2           3           4           5
 ............................................................
   1    9.997       7.472       4.962       2.475      2.9659E-03
   2    9.997       7.472       4.962       2.475      2.9659E-03
   3    9.997       7.472       4.962       2.475      2.9659E-03
   4    9.997       7.472       4.962       2.475      2.9659E-03
   5    9.997       7.472       4.962       2.475      2.9659E-03
1
              HEAD IN LAYER   2 AT END OF TIME STEP  32 IN STRESS PERIOD    2
  ---------------------------------------------------------------------------

            1           2           3           4           5
 ............................................................
   1    9.997       7.472       4.962       2.475      2.9659E-03
   2    9.997       7.472       4.962       2.475      2.9659E-03
   3    9.997       7.472       4.962       2.475      2.9659E-03
   4    9.997       7.472       4.962       2.475      2.9659E-03
   5    9.997       7.472       4.962       2.475      2.9659E-03
1
              HEAD IN LAYER   3 AT END OF TIME STEP  32 IN STRESS PERIOD    2
  ---------------------------------------------------------------------------

            1           2           3           4           5
 ............................................................
   1    9.997       7.472       4.962       2.475      2.9659E-03
   2    9.997       7.472       4.962       2.475      2.9659E-03
   3    9.997       7.472       4.962       2.475      2.9659E-03
   4    9.997       7.472       4.962       2.475      2.9659E-03
   5    9.997       7.472       4.962       2.475      2.9659E-03
1
              HEAD IN LAYER   4 AT END OF TIME STEP  32 IN STRESS PERIOD    2
  ---------------------------------------------------------------------------

            1           2           3           4           5
 ............................................................
   1    9.997       7.472       4.962       2.475      2.9659E-03
   2    9.997       7.472       4.962       2.475      2.9659E-03
   3    9.997       7.472       4.962       2.475      2.9659E-03
   4    9.997       7.472       4.962       2.475      2.9659E-03
   5    9.997       7.472       4.962       2.475      2.9659E-03
1
              HEAD IN LAYER   5 AT END OF TIME STEP  32 IN STRESS PERIOD    2
  ---------------------------------------------------------------------------

            1           2           3           4           5
 ............................................................
   1    9.997       7.472       4.962       2.475      2.9659E-03
   2    9.997       7.472       4.962       2.475      2.9659E-03
   3    9.997       7.472       4.962       2.475      2.9659E-03
   4    9.997       7.472       4.962       2.475      2.9659E-03
   5    9.997       7.472       4.962       2.475      2.9659E-03

 HEAD WILL BE SAVED ON UNIT   51 AT END OF TIME STEP   32, STRESS PERIOD    2

 DRAWDOWN WILL BE SAVED ON UNIT   52 AT END OF TIME STEP   32, STRESS PERIOD    2
1
  VOLUMETRIC BUDGET FOR ENTIRE MODEL AT END OF TIME STEP   32, STRESS PERIOD   2
  ------------------------------------------------------------------------------

     CUMULATIVE VOLUMES      L**3       RATES FOR THIS TIME STEP      L**3/T
     ------------------                 ------------------------

           IN:                                      IN:
           ---                                      ---
             STORAGE =           0.0000               STORAGE =           0.0000
       CONSTANT HEAD =           0.0000         CONSTANT HEAD =           0.0000
               WELLS =           0.0000                 WELLS =           0.0000
     HEAD DEP BOUNDS =       35553.3984       HEAD DEP BOUNDS =         757.7834

            TOTAL IN =       35553.3984              TOTAL IN =         757.7834

          OUT:                                     OUT:
          ----                                     ----
             STORAGE =       14890.2803               STORAGE =          16.2122
       CONSTANT HEAD =           0.0000         CONSTANT HEAD =           0.0000
               WELLS =           0.0000                 WELLS =           0.0000
     HEAD DEP BOUNDS =       20662.7891       HEAD DEP BOUNDS =         741.4822

           TOTAL OUT =       35553.0703             TOTAL OUT =         757.6944

            IN - OUT =           0.3281              IN - OUT =       8.9050E-02

 PERCENT DISCREPANCY =           0.00     PERCENT DISCREPANCY =           0.01






         TIME SUMMARY AT END OF TIME STEP   32 IN STRESS PERIOD    2
                    SECONDS     MINUTES      HOURS       DAYS        YEARS
                    -----------------------------------------------------------
   TIME STEP LENGTH  86400.      1440.0      24.000      1.0000     2.73785E-03
 STRESS PERIOD TIME 2.76480E+06  46080.      768.00      32.000     8.76112E-02
         TOTAL TIME 2.85120E+06  47520.      792.00      33.000     9.03491E-02
1
 
 SOLVING FOR HEAD 

 OUTPUT CONTROL FOR STRESS PERIOD    2   TIME STEP   33
    SAVE HEAD FOR ALL LAYERS
    SAVE DRAWDOWN FOR ALL LAYERS
    SAVE BUDGET
    PRINT HEAD FOR ALL LAYERS
    PRINT BUDGET
 UBDSV1 SAVING "         STORAGE" ON UNIT  53 AT TIME STEP 33, STRESS PERIOD   2
 UBDSV2 SAVING "   CONSTANT HEAD" ON UNIT  53 AT TIME STEP 33, STRESS PERIOD   2
 UBDSV1 SAVING "FLOW RIGHT FACE " ON UNIT  53 AT TIME STEP 33, STRESS PERIOD   2
 UBDSV1 SAVING "FLOW FRONT FACE " ON UNIT  53 AT TIME STEP 33, STRESS PERIOD   2
 UBDSV1 SAVING "FLOW LOWER FACE " ON UNIT  53 AT TIME STEP 33, STRESS PERIOD   2
1
              HEAD IN LAYER   1 AT END OF TIME STEP  33 IN STRESS PERIOD    2
  ---------------------------------------------------------------------------

            1           2           3           4           5
 ............................................................
   1    9.997       7.475       4.967       2.478      2.9701E-03
   2    9.997       7.475       4.967       2.478      2.9701E-03
   3    9.997       7.475       4.967       2.478      2.9701E-03
   4    9.997       7.475       4.967       2.478      2.9701E-03
   5    9.997       7.475       4.967       2.478      2.9701E-03
1
              HEAD IN LAYER   2 AT END OF TIME STEP  33 IN STRESS PERIOD    2
  ---------------------------------------------------------------------------

            1           2           3           4           5
 ............................................................
   1    9.997       7.475       4.967       2.478      2.9701E-03
   2    9.997       7.475       4.967       2.478      2.9701E-03
   3    9.997       7.475       4.967       2.478      2.9701E-03
   4    9.997       7.475       4.967       2.478      2.9701E-03
   5    9.997       7.475       4.967       2.478      2.9701E-03
1
              HEAD IN LAYER   3 AT END OF TIME STEP  33 IN STRESS PERIOD    2
  ---------------------------------------------------------------------------

            1           2           3           4           5
 ............................................................
   1    9.997       7.475       4.967       2.478      2.9701E-03
   2    9.997       7.475       4.967       2.478      2.9701E-03
   3    9.997       7.475       4.967       2.478      2.9701E-03
   4    9.997       7.475       4.967       2.478      2.9701E-03
   5    9.997       7.475       4.967       2.478      2.9701E-03
1
              HEAD IN LAYER   4 AT END OF TIME STEP  33 IN STRESS PERIOD    2
  ---------------------------------------------------------------------------

            1           2           3           4           5
 ............................................................
   1    9.997       7.475       4.967       2.478      2.9701E-03
   2    9.997       7.475       4.967       2.478      2.9701E-03
   3    9.997       7.475       4.967       2.478      2.9701E-03
   4    9.997       7.475       4.967       2.478      2.9701E-03
   5    9.997       7.475       4.967       2.478      2.9701E-03
1
              HEAD IN LAYER   5 AT END OF TIME STEP  33 IN STRESS PERIOD    2
  ---------------------------------------------------------------------------

            1           2           3           4           5
 ............................................................
   1    9.997       7.475       4.967       2.478      2.9701E-03
   2    9.997       7.475       4.967       2.478      2.9701E-03
   3    9.997       7.475       4.967       2.478      2.9701E-03
   4    9.997       7.475       4.967       2.478      2.9701E-03
   5    9.997       7.475       4.967       2.478      2.9701E-03

 HEAD WILL BE SAVED ON UNIT   51 AT END OF TIME STEP   33, STRESS PERIOD    2

 DRAWDOWN WILL BE SAVED ON UNIT   52 AT END OF TIME STEP   33, STRESS PERIOD    2
1
  VOLUMETRIC BUDGET FOR ENTIRE MODEL AT END OF TIME STEP   33, STRESS PERIOD   2
  ------------------------------------------------------------------------------

     CUMULATIVE VOLUMES      L**3       RATES FOR THIS TIME STEP      L**3/T
     ------------------                 ------------------------

           IN:                                      IN:
           ---                                      ---
             STORAGE =           0.0000               STORAGE =           0.0000
       CONSTANT HEAD =           0.0000         CONSTANT HEAD =           0.0000
               WELLS =           0.0000                 WELLS =           0.0000
     HEAD DEP BOUNDS =       36310.1523       HEAD DEP BOUNDS =         756.7532

            TOTAL IN =       36310.1523              TOTAL IN =         756.7532

          OUT:                                     OUT:
          ----                                     ----
             STORAGE =       14904.4238               STORAGE =          14.1433
       CONSTANT HEAD =           0.0000         CONSTANT HEAD =           0.0000
               WELLS =           0.0000                 WELLS =           0.0000
     HEAD DEP BOUNDS =       21405.3047       HEAD DEP BOUNDS =         742.5166

           TOTAL OUT =       36309.7266             TOTAL OUT =         756.6599

            IN - OUT =           0.4258              IN - OUT =       9.3323E-02

 PERCENT DISCREPANCY =           0.00     PERCENT DISCREPANCY =           0.01






         TIME SUMMARY AT END OF TIME STEP   33 IN STRESS PERIOD    2
                    SECONDS     MINUTES      HOURS       DAYS        YEARS
                    -----------------------------------------------------------
   TIME STEP LENGTH  86400.      1440.0      24.000      1.0000     2.73785E-03
 STRESS PERIOD TIME 2.85120E+06  47520.      792.00      33.000     9.03491E-02
         TOTAL TIME 2.93760E+06  48960.      816.00      34.000     9.30869E-02
1
 
 SOLVING FOR HEAD 

 OUTPUT CONTROL FOR STRESS PERIOD    2   TIME STEP   34
    SAVE HEAD FOR ALL LAYERS
    SAVE DRAWDOWN FOR ALL LAYERS
    SAVE BUDGET
    PRINT HEAD FOR ALL LAYERS
    PRINT BUDGET
 UBDSV1 SAVING "         STORAGE" ON UNIT  53 AT TIME STEP 34, STRESS PERIOD   2
 UBDSV2 SAVING "   CONSTANT HEAD" ON UNIT  53 AT TIME STEP 34, STRESS PERIOD   2
 UBDSV1 SAVING "FLOW RIGHT FACE " ON UNIT  53 AT TIME STEP 34, STRESS PERIOD   2
 UBDSV1 SAVING "FLOW FRONT FACE " ON UNIT  53 AT TIME STEP 34, STRESS PERIOD   2
 UBDSV1 SAVING "FLOW LOWER FACE " ON UNIT  53 AT TIME STEP 34, STRESS PERIOD   2
1
              HEAD IN LAYER   1 AT END OF TIME STEP  34 IN STRESS PERIOD    2
  ---------------------------------------------------------------------------

            1           2           3           4           5
 ............................................................
   1    9.997       7.478       4.971       2.481      2.9737E-03
   2    9.997       7.478       4.971       2.481      2.9737E-03
   3    9.997       7.478       4.971       2.481      2.9737E-03
   4    9.997       7.478       4.971       2.481      2.9737E-03
   5    9.997       7.478       4.971       2.481      2.9737E-03
1
              HEAD IN LAYER   2 AT END OF TIME STEP  34 IN STRESS PERIOD    2
  ---------------------------------------------------------------------------

            1           2           3           4           5
 ............................................................
   1    9.997       7.478       4.971       2.481      2.9737E-03
   2    9.997       7.478       4.971       2.481      2.9737E-03
   3    9.997       7.478       4.971       2.481      2.9737E-03
   4    9.997       7.478       4.971       2.481      2.9737E-03
   5    9.997       7.478       4.971       2.481      2.9737E-03
1
              HEAD IN LAYER   3 AT END OF TIME STEP  34 IN STRESS PERIOD    2
  ---------------------------------------------------------------------------

            1           2           3           4           5
 ............................................................
   1    9.997       7.478       4.971       2.481      2.9737E-03
   2    9.997       7.478       4.971       2.481      2.9737E-03
   3    9.997       7.478       4.971       2.481      2.9737E-03
   4    9.997       7.478       4.971       2.481      2.9737E-03
   5    9.997       7.478       4.971       2.481      2.9737E-03
1
              HEAD IN LAYER   4 AT END OF TIME STEP  34 IN STRESS PERIOD    2
  ---------------------------------------------------------------------------

            1           2           3           4           5
 ............................................................
   1    9.997       7.478       4.971       2.481      2.9737E-03
   2    9.997       7.478       4.971       2.481      2.9737E-03
   3    9.997       7.478       4.971       2.481      2.9737E-03
   4    9.997       7.478       4.971       2.481      2.9737E-03
   5    9.997       7.478       4.971       2.481      2.9737E-03
1
              HEAD IN LAYER   5 AT END OF TIME STEP  34 IN STRESS PERIOD    2
  ---------------------------------------------------------------------------

            1           2           3           4           5
 ............................................................
   1    9.997       7.478       4.971       2.481      2.9737E-03
   2    9.997       7.478       4.971       2.481      2.9737E-03
   3    9.997       7.478       4.971       2.481      2.9737E-03
   4    9.997       7.478       4.971       2.481      2.9737E-03
   5    9.997       7.478       4.971       2.481      2.9737E-03

 HEAD WILL BE SAVED ON UNIT   51 AT END OF TIME STEP   34, STRESS PERIOD    2

 DRAWDOWN WILL BE SAVED ON UNIT   52 AT END OF TIME STEP   34, STRESS PERIOD    2
1
  VOLUMETRIC BUDGET FOR ENTIRE MODEL AT END OF TIME STEP   34, STRESS PERIOD   2
  ------------------------------------------------------------------------------

     CUMULATIVE VOLUMES      L**3       RATES FOR THIS TIME STEP      L**3/T
     ------------------                 ------------------------

           IN:                                      IN:
           ---                                      ---
             STORAGE =           0.0000               STORAGE =           0.0000
       CONSTANT HEAD =           0.0000         CONSTANT HEAD =           0.0000
               WELLS =           0.0000                 WELLS =           0.0000
     HEAD DEP BOUNDS =       37066.0078       HEAD DEP BOUNDS =         755.8547

            TOTAL IN =       37066.0078              TOTAL IN =         755.8547

          OUT:                                     OUT:
          ----                                     ----
             STORAGE =       14916.7617               STORAGE =          12.3379
       CONSTANT HEAD =           0.0000         CONSTANT HEAD =           0.0000
               WELLS =           0.0000                 WELLS =           0.0000
     HEAD DEP BOUNDS =       22148.7246       HEAD DEP BOUNDS =         743.4190

           TOTAL OUT =       37065.4844             TOTAL OUT =         755.7569

            IN - OUT =           0.5234              IN - OUT =       9.7778E-02

 PERCENT DISCREPANCY =           0.00     PERCENT DISCREPANCY =           0.01






         TIME SUMMARY AT END OF TIME STEP   34 IN STRESS PERIOD    2
                    SECONDS     MINUTES      HOURS       DAYS        YEARS
                    -----------------------------------------------------------
   TIME STEP LENGTH  86400.      1440.0      24.000      1.0000     2.73785E-03
 STRESS PERIOD TIME 2.93760E+06  48960.      816.00      34.000     9.30869E-02
         TOTAL TIME 3.02400E+06  50400.      840.00      35.000     9.58248E-02
1
 
 SOLVING FOR HEAD 

 OUTPUT CONTROL FOR STRESS PERIOD    2   TIME STEP   35
    SAVE HEAD FOR ALL LAYERS
    SAVE DRAWDOWN FOR ALL LAYERS
    SAVE BUDGET
    PRINT HEAD FOR ALL LAYERS
    PRINT BUDGET
 UBDSV1 SAVING "         STORAGE" ON UNIT  53 AT TIME STEP 35, STRESS PERIOD   2
 UBDSV2 SAVING "   CONSTANT HEAD" ON UNIT  53 AT TIME STEP 35, STRESS PERIOD   2
 UBDSV1 SAVING "FLOW RIGHT FACE " ON UNIT  53 AT TIME STEP 35, STRESS PERIOD   2
 UBDSV1 SAVING "FLOW FRONT FACE " ON UNIT  53 AT TIME STEP 35, STRESS PERIOD   2
 UBDSV1 SAVING "FLOW LOWER FACE " ON UNIT  53 AT TIME STEP 35, STRESS PERIOD   2
1
              HEAD IN LAYER   1 AT END OF TIME STEP  35 IN STRESS PERIOD    2
  ---------------------------------------------------------------------------

            1           2           3           4           5
 ............................................................
   1    9.997       7.481       4.975       2.484      2.9768E-03
   2    9.997       7.481       4.975       2.484      2.9768E-03
   3    9.997       7.481       4.975       2.484      2.9768E-03
   4    9.997       7.481       4.975       2.484      2.9768E-03
   5    9.997       7.481       4.975       2.484      2.9768E-03
1
              HEAD IN LAYER   2 AT END OF TIME STEP  35 IN STRESS PERIOD    2
  ---------------------------------------------------------------------------

            1           2           3           4           5
 ............................................................
   1    9.997       7.481       4.975       2.484      2.9768E-03
   2    9.997       7.481       4.975       2.484      2.9768E-03
   3    9.997       7.481       4.975       2.484      2.9768E-03
   4    9.997       7.481       4.975       2.484      2.9768E-03
   5    9.997       7.481       4.975       2.484      2.9768E-03
1
              HEAD IN LAYER   3 AT END OF TIME STEP  35 IN STRESS PERIOD    2
  ---------------------------------------------------------------------------

            1           2           3           4           5
 ............................................................
   1    9.997       7.481       4.975       2.484      2.9768E-03
   2    9.997       7.481       4.975       2.484      2.9768E-03
   3    9.997       7.481       4.975       2.484      2.9768E-03
   4    9.997       7.481       4.975       2.484      2.9768E-03
   5    9.997       7.481       4.975       2.484      2.9768E-03
1
              HEAD IN LAYER   4 AT END OF TIME STEP  35 IN STRESS PERIOD    2
  ---------------------------------------------------------------------------

            1           2           3           4           5
 ............................................................
   1    9.997       7.481       4.975       2.484      2.9768E-03
   2    9.997       7.481       4.975       2.484      2.9768E-03
   3    9.997       7.481       4.975       2.484      2.9768E-03
   4    9.997       7.481       4.975       2.484      2.9768E-03
   5    9.997       7.481       4.975       2.484      2.9768E-03
1
              HEAD IN LAYER   5 AT END OF TIME STEP  35 IN STRESS PERIOD    2
  ---------------------------------------------------------------------------

            1           2           3           4           5
 ............................................................
   1    9.997       7.481       4.975       2.484      2.9768E-03
   2    9.997       7.481       4.975       2.484      2.9768E-03
   3    9.997       7.481       4.975       2.484      2.9768E-03
   4    9.997       7.481       4.975       2.484      2.9768E-03
   5    9.997       7.481       4.975       2.484      2.9768E-03

 HEAD WILL BE SAVED ON UNIT   51 AT END OF TIME STEP   35, STRESS PERIOD    2

 DRAWDOWN WILL BE SAVED ON UNIT   52 AT END OF TIME STEP   35, STRESS PERIOD    2
1
  VOLUMETRIC BUDGET FOR ENTIRE MODEL AT END OF TIME STEP   35, STRESS PERIOD   2
  ------------------------------------------------------------------------------

     CUMULATIVE VOLUMES      L**3       RATES FOR THIS TIME STEP      L**3/T
     ------------------                 ------------------------

           IN:                                      IN:
           ---                                      ---
             STORAGE =           0.0000               STORAGE =           0.0000
       CONSTANT HEAD =           0.0000         CONSTANT HEAD =           0.0000
               WELLS =           0.0000                 WELLS =           0.0000
     HEAD DEP BOUNDS =       37820.8828       HEAD DEP BOUNDS =         754.8765

            TOTAL IN =       37820.8828              TOTAL IN =         754.8765

          OUT:                                     OUT:
          ----                                     ----
             STORAGE =       14927.5254               STORAGE =          10.7641
       CONSTANT HEAD =           0.0000         CONSTANT HEAD =           0.0000
               WELLS =           0.0000                 WELLS =           0.0000
     HEAD DEP BOUNDS =       22892.9316       HEAD DEP BOUNDS =         744.2062

           TOTAL OUT =       37820.4570             TOTAL OUT =         754.9703

            IN - OUT =           0.4258              IN - OUT =      -9.3811E-02

 PERCENT DISCREPANCY =           0.00     PERCENT DISCREPANCY =          -0.01






         TIME SUMMARY AT END OF TIME STEP   35 IN STRESS PERIOD    2
                    SECONDS     MINUTES      HOURS       DAYS        YEARS
                    -----------------------------------------------------------
   TIME STEP LENGTH  86400.      1440.0      24.000      1.0000     2.73785E-03
 STRESS PERIOD TIME 3.02400E+06  50400.      840.00      35.000     9.58248E-02
         TOTAL TIME 3.11040E+06  51840.      864.00      36.000     9.85626E-02
1
 
 SOLVING FOR HEAD 

 OUTPUT CONTROL FOR STRESS PERIOD    2   TIME STEP   36
    SAVE HEAD FOR ALL LAYERS
    SAVE DRAWDOWN FOR ALL LAYERS
    SAVE BUDGET
    PRINT HEAD FOR ALL LAYERS
    PRINT BUDGET
 UBDSV1 SAVING "         STORAGE" ON UNIT  53 AT TIME STEP 36, STRESS PERIOD   2
 UBDSV2 SAVING "   CONSTANT HEAD" ON UNIT  53 AT TIME STEP 36, STRESS PERIOD   2
 UBDSV1 SAVING "FLOW RIGHT FACE " ON UNIT  53 AT TIME STEP 36, STRESS PERIOD   2
 UBDSV1 SAVING "FLOW FRONT FACE " ON UNIT  53 AT TIME STEP 36, STRESS PERIOD   2
 UBDSV1 SAVING "FLOW LOWER FACE " ON UNIT  53 AT TIME STEP 36, STRESS PERIOD   2
1
              HEAD IN LAYER   1 AT END OF TIME STEP  36 IN STRESS PERIOD    2
  ---------------------------------------------------------------------------

            1           2           3           4           5
 ............................................................
   1    9.997       7.483       4.978       2.486      2.9796E-03
   2    9.997       7.483       4.978       2.486      2.9796E-03
   3    9.997       7.483       4.978       2.486      2.9796E-03
   4    9.997       7.483       4.978       2.486      2.9796E-03
   5    9.997       7.483       4.978       2.486      2.9796E-03
1
              HEAD IN LAYER   2 AT END OF TIME STEP  36 IN STRESS PERIOD    2
  ---------------------------------------------------------------------------

            1           2           3           4           5
 ............................................................
   1    9.997       7.483       4.978       2.486      2.9796E-03
   2    9.997       7.483       4.978       2.486      2.9796E-03
   3    9.997       7.483       4.978       2.486      2.9796E-03
   4    9.997       7.483       4.978       2.486      2.9796E-03
   5    9.997       7.483       4.978       2.486      2.9796E-03
1
              HEAD IN LAYER   3 AT END OF TIME STEP  36 IN STRESS PERIOD    2
  ---------------------------------------------------------------------------

            1           2           3           4           5
 ............................................................
   1    9.997       7.483       4.978       2.486      2.9796E-03
   2    9.997       7.483       4.978       2.486      2.9796E-03
   3    9.997       7.483       4.978       2.486      2.9796E-03
   4    9.997       7.483       4.978       2.486      2.9796E-03
   5    9.997       7.483       4.978       2.486      2.9796E-03
1
              HEAD IN LAYER   4 AT END OF TIME STEP  36 IN STRESS PERIOD    2
  ---------------------------------------------------------------------------

            1           2           3           4           5
 ............................................................
   1    9.997       7.483       4.978       2.486      2.9796E-03
   2    9.997       7.483       4.978       2.486      2.9796E-03
   3    9.997       7.483       4.978       2.486      2.9796E-03
   4    9.997       7.483       4.978       2.486      2.9796E-03
   5    9.997       7.483       4.978       2.486      2.9796E-03
1
              HEAD IN LAYER   5 AT END OF TIME STEP  36 IN STRESS PERIOD    2
  ---------------------------------------------------------------------------

            1           2           3           4           5
 ............................................................
   1    9.997       7.483       4.978       2.486      2.9796E-03
   2    9.997       7.483       4.978       2.486      2.9796E-03
   3    9.997       7.483       4.978       2.486      2.9796E-03
   4    9.997       7.483       4.978       2.486      2.9796E-03
   5    9.997       7.483       4.978       2.486      2.9796E-03

 HEAD WILL BE SAVED ON UNIT   51 AT END OF TIME STEP   36, STRESS PERIOD    2

 DRAWDOWN WILL BE SAVED ON UNIT   52 AT END OF TIME STEP   36, STRESS PERIOD    2
1
  VOLUMETRIC BUDGET FOR ENTIRE MODEL AT END OF TIME STEP   36, STRESS PERIOD   2
  ------------------------------------------------------------------------------

     CUMULATIVE VOLUMES      L**3       RATES FOR THIS TIME STEP      L**3/T
     ------------------                 ------------------------

           IN:                                      IN:
           ---                                      ---
             STORAGE =           0.0000               STORAGE =           0.0000
       CONSTANT HEAD =           0.0000         CONSTANT HEAD =           0.0000
               WELLS =           0.0000                 WELLS =           0.0000
     HEAD DEP BOUNDS =       38575.0742       HEAD DEP BOUNDS =         754.1927

            TOTAL IN =       38575.0742              TOTAL IN =         754.1927

          OUT:                                     OUT:
          ----                                     ----
             STORAGE =       14936.9141               STORAGE =           9.3889
       CONSTANT HEAD =           0.0000         CONSTANT HEAD =           0.0000
               WELLS =           0.0000                 WELLS =           0.0000
     HEAD DEP BOUNDS =       23637.8242       HEAD DEP BOUNDS =         744.8931

           TOTAL OUT =       38574.7383             TOTAL OUT =         754.2819

            IN - OUT =           0.3359              IN - OUT =      -8.9172E-02

 PERCENT DISCREPANCY =           0.00     PERCENT DISCREPANCY =          -0.01






         TIME SUMMARY AT END OF TIME STEP   36 IN STRESS PERIOD    2
                    SECONDS     MINUTES      HOURS       DAYS        YEARS
                    -----------------------------------------------------------
   TIME STEP LENGTH  86400.      1440.0      24.000      1.0000     2.73785E-03
 STRESS PERIOD TIME 3.11040E+06  51840.      864.00      36.000     9.85626E-02
         TOTAL TIME 3.19680E+06  53280.      888.00      37.000     0.10130    
1
 
 SOLVING FOR HEAD 

 OUTPUT CONTROL FOR STRESS PERIOD    2   TIME STEP   37
    SAVE HEAD FOR ALL LAYERS
    SAVE DRAWDOWN FOR ALL LAYERS
    SAVE BUDGET
    PRINT HEAD FOR ALL LAYERS
    PRINT BUDGET
 UBDSV1 SAVING "         STORAGE" ON UNIT  53 AT TIME STEP 37, STRESS PERIOD   2
 UBDSV2 SAVING "   CONSTANT HEAD" ON UNIT  53 AT TIME STEP 37, STRESS PERIOD   2
 UBDSV1 SAVING "FLOW RIGHT FACE " ON UNIT  53 AT TIME STEP 37, STRESS PERIOD   2
 UBDSV1 SAVING "FLOW FRONT FACE " ON UNIT  53 AT TIME STEP 37, STRESS PERIOD   2
 UBDSV1 SAVING "FLOW LOWER FACE " ON UNIT  53 AT TIME STEP 37, STRESS PERIOD   2
1
              HEAD IN LAYER   1 AT END OF TIME STEP  37 IN STRESS PERIOD    2
  ---------------------------------------------------------------------------

            1           2           3           4           5
 ............................................................
   1    9.997       7.485       4.981       2.488      2.9820E-03
   2    9.997       7.485       4.981       2.488      2.9820E-03
   3    9.997       7.485       4.981       2.488      2.9820E-03
   4    9.997       7.485       4.981       2.488      2.9820E-03
   5    9.997       7.485       4.981       2.488      2.9820E-03
1
              HEAD IN LAYER   2 AT END OF TIME STEP  37 IN STRESS PERIOD    2
  ---------------------------------------------------------------------------

            1           2           3           4           5
 ............................................................
   1    9.997       7.485       4.981       2.488      2.9820E-03
   2    9.997       7.485       4.981       2.488      2.9820E-03
   3    9.997       7.485       4.981       2.488      2.9820E-03
   4    9.997       7.485       4.981       2.488      2.9820E-03
   5    9.997       7.485       4.981       2.488      2.9820E-03
1
              HEAD IN LAYER   3 AT END OF TIME STEP  37 IN STRESS PERIOD    2
  ---------------------------------------------------------------------------

            1           2           3           4           5
 ............................................................
   1    9.997       7.485       4.981       2.488      2.9820E-03
   2    9.997       7.485       4.981       2.488      2.9820E-03
   3    9.997       7.485       4.981       2.488      2.9820E-03
   4    9.997       7.485       4.981       2.488      2.9820E-03
   5    9.997       7.485       4.981       2.488      2.9820E-03
1
              HEAD IN LAYER   4 AT END OF TIME STEP  37 IN STRESS PERIOD    2
  ---------------------------------------------------------------------------

            1           2           3           4           5
 ............................................................
   1    9.997       7.485       4.981       2.488      2.9820E-03
   2    9.997       7.485       4.981       2.488      2.9820E-03
   3    9.997       7.485       4.981       2.488      2.9820E-03
   4    9.997       7.485       4.981       2.488      2.9820E-03
   5    9.997       7.485       4.981       2.488      2.9820E-03
1
              HEAD IN LAYER   5 AT END OF TIME STEP  37 IN STRESS PERIOD    2
  ---------------------------------------------------------------------------

            1           2           3           4           5
 ............................................................
   1    9.997       7.485       4.981       2.488      2.9820E-03
   2    9.997       7.485       4.981       2.488      2.9820E-03
   3    9.997       7.485       4.981       2.488      2.9820E-03
   4    9.997       7.485       4.981       2.488      2.9820E-03
   5    9.997       7.485       4.981       2.488      2.9820E-03

 HEAD WILL BE SAVED ON UNIT   51 AT END OF TIME STEP   37, STRESS PERIOD    2

 DRAWDOWN WILL BE SAVED ON UNIT   52 AT END OF TIME STEP   37, STRESS PERIOD    2
1
  VOLUMETRIC BUDGET FOR ENTIRE MODEL AT END OF TIME STEP   37, STRESS PERIOD   2
  ------------------------------------------------------------------------------

     CUMULATIVE VOLUMES      L**3       RATES FOR THIS TIME STEP      L**3/T
     ------------------                 ------------------------

           IN:                                      IN:
           ---                                      ---
             STORAGE =           0.0000               STORAGE =           0.0000
       CONSTANT HEAD =           0.0000         CONSTANT HEAD =           0.0000
               WELLS =           0.0000                 WELLS =           0.0000
     HEAD DEP BOUNDS =       39328.6719       HEAD DEP BOUNDS =         753.5961

            TOTAL IN =       39328.6719              TOTAL IN =         753.5961

          OUT:                                     OUT:
          ----                                     ----
             STORAGE =       14945.1045               STORAGE =           8.1908
       CONSTANT HEAD =           0.0000         CONSTANT HEAD =           0.0000
               WELLS =           0.0000                 WELLS =           0.0000
     HEAD DEP BOUNDS =       24383.3164       HEAD DEP BOUNDS =         745.4922

           TOTAL OUT =       39328.4219             TOTAL OUT =         753.6830

            IN - OUT =           0.2500              IN - OUT =      -8.6914E-02

 PERCENT DISCREPANCY =           0.00     PERCENT DISCREPANCY =          -0.01






         TIME SUMMARY AT END OF TIME STEP   37 IN STRESS PERIOD    2
                    SECONDS     MINUTES      HOURS       DAYS        YEARS
                    -----------------------------------------------------------
   TIME STEP LENGTH  86400.      1440.0      24.000      1.0000     2.73785E-03
 STRESS PERIOD TIME 3.19680E+06  53280.      888.00      37.000     0.10130    
         TOTAL TIME 3.28320E+06  54720.      912.00      38.000     0.10404    
1
 
 SOLVING FOR HEAD 

 OUTPUT CONTROL FOR STRESS PERIOD    2   TIME STEP   38
    SAVE HEAD FOR ALL LAYERS
    SAVE DRAWDOWN FOR ALL LAYERS
    SAVE BUDGET
    PRINT HEAD FOR ALL LAYERS
    PRINT BUDGET
 UBDSV1 SAVING "         STORAGE" ON UNIT  53 AT TIME STEP 38, STRESS PERIOD   2
 UBDSV2 SAVING "   CONSTANT HEAD" ON UNIT  53 AT TIME STEP 38, STRESS PERIOD   2
 UBDSV1 SAVING "FLOW RIGHT FACE " ON UNIT  53 AT TIME STEP 38, STRESS PERIOD   2
 UBDSV1 SAVING "FLOW FRONT FACE " ON UNIT  53 AT TIME STEP 38, STRESS PERIOD   2
 UBDSV1 SAVING "FLOW LOWER FACE " ON UNIT  53 AT TIME STEP 38, STRESS PERIOD   2
1
              HEAD IN LAYER   1 AT END OF TIME STEP  38 IN STRESS PERIOD    2
  ---------------------------------------------------------------------------

            1           2           3           4           5
 ............................................................
   1    9.997       7.487       4.983       2.490      2.9841E-03
   2    9.997       7.487       4.983       2.490      2.9841E-03
   3    9.997       7.487       4.983       2.490      2.9841E-03
   4    9.997       7.487       4.983       2.490      2.9841E-03
   5    9.997       7.487       4.983       2.490      2.9841E-03
1
              HEAD IN LAYER   2 AT END OF TIME STEP  38 IN STRESS PERIOD    2
  ---------------------------------------------------------------------------

            1           2           3           4           5
 ............................................................
   1    9.997       7.487       4.983       2.490      2.9841E-03
   2    9.997       7.487       4.983       2.490      2.9841E-03
   3    9.997       7.487       4.983       2.490      2.9841E-03
   4    9.997       7.487       4.983       2.490      2.9841E-03
   5    9.997       7.487       4.983       2.490      2.9841E-03
1
              HEAD IN LAYER   3 AT END OF TIME STEP  38 IN STRESS PERIOD    2
  ---------------------------------------------------------------------------

            1           2           3           4           5
 ............................................................
   1    9.997       7.487       4.983       2.490      2.9841E-03
   2    9.997       7.487       4.983       2.490      2.9841E-03
   3    9.997       7.487       4.983       2.490      2.9841E-03
   4    9.997       7.487       4.983       2.490      2.9841E-03
   5    9.997       7.487       4.983       2.490      2.9841E-03
1
              HEAD IN LAYER   4 AT END OF TIME STEP  38 IN STRESS PERIOD    2
  ---------------------------------------------------------------------------

            1           2           3           4           5
 ............................................................
   1    9.997       7.487       4.983       2.490      2.9841E-03
   2    9.997       7.487       4.983       2.490      2.9841E-03
   3    9.997       7.487       4.983       2.490      2.9841E-03
   4    9.997       7.487       4.983       2.490      2.9841E-03
   5    9.997       7.487       4.983       2.490      2.9841E-03
1
              HEAD IN LAYER   5 AT END OF TIME STEP  38 IN STRESS PERIOD    2
  ---------------------------------------------------------------------------

            1           2           3           4           5
 ............................................................
   1    9.997       7.487       4.983       2.490      2.9841E-03
   2    9.997       7.487       4.983       2.490      2.9841E-03
   3    9.997       7.487       4.983       2.490      2.9841E-03
   4    9.997       7.487       4.983       2.490      2.9841E-03
   5    9.997       7.487       4.983       2.490      2.9841E-03

 HEAD WILL BE SAVED ON UNIT   51 AT END OF TIME STEP   38, STRESS PERIOD    2

 DRAWDOWN WILL BE SAVED ON UNIT   52 AT END OF TIME STEP   38, STRESS PERIOD    2
1
  VOLUMETRIC BUDGET FOR ENTIRE MODEL AT END OF TIME STEP   38, STRESS PERIOD   2
  ------------------------------------------------------------------------------

     CUMULATIVE VOLUMES      L**3       RATES FOR THIS TIME STEP      L**3/T
     ------------------                 ------------------------

           IN:                                      IN:
           ---                                      ---
             STORAGE =           0.0000               STORAGE =           0.0000
       CONSTANT HEAD =           0.0000         CONSTANT HEAD =           0.0000
               WELLS =           0.0000                 WELLS =           0.0000
     HEAD DEP BOUNDS =       40081.7461       HEAD DEP BOUNDS =         753.0757

            TOTAL IN =       40081.7461              TOTAL IN =         753.0757

          OUT:                                     OUT:
          ----                                     ----
             STORAGE =       14952.2500               STORAGE =           7.1459
       CONSTANT HEAD =           0.0000         CONSTANT HEAD =           0.0000
               WELLS =           0.0000                 WELLS =           0.0000
     HEAD DEP BOUNDS =       25129.3320       HEAD DEP BOUNDS =         746.0149

           TOTAL OUT =       40081.5820             TOTAL OUT =         753.1608

            IN - OUT =           0.1641              IN - OUT =      -8.5083E-02

 PERCENT DISCREPANCY =           0.00     PERCENT DISCREPANCY =          -0.01






         TIME SUMMARY AT END OF TIME STEP   38 IN STRESS PERIOD    2
                    SECONDS     MINUTES      HOURS       DAYS        YEARS
                    -----------------------------------------------------------
   TIME STEP LENGTH  86400.      1440.0      24.000      1.0000     2.73785E-03
 STRESS PERIOD TIME 3.28320E+06  54720.      912.00      38.000     0.10404    
         TOTAL TIME 3.36960E+06  56160.      936.00      39.000     0.10678    
1
 
 SOLVING FOR HEAD 

 OUTPUT CONTROL FOR STRESS PERIOD    2   TIME STEP   39
    SAVE HEAD FOR ALL LAYERS
    SAVE DRAWDOWN FOR ALL LAYERS
    SAVE BUDGET
    PRINT HEAD FOR ALL LAYERS
    PRINT BUDGET
 UBDSV1 SAVING "         STORAGE" ON UNIT  53 AT TIME STEP 39, STRESS PERIOD   2
 UBDSV2 SAVING "   CONSTANT HEAD" ON UNIT  53 AT TIME STEP 39, STRESS PERIOD   2
 UBDSV1 SAVING "FLOW RIGHT FACE " ON UNIT  53 AT TIME STEP 39, STRESS PERIOD   2
 UBDSV1 SAVING "FLOW FRONT FACE " ON UNIT  53 AT TIME STEP 39, STRESS PERIOD   2
 UBDSV1 SAVING "FLOW LOWER FACE " ON UNIT  53 AT TIME STEP 39, STRESS PERIOD   2
1
              HEAD IN LAYER   1 AT END OF TIME STEP  39 IN STRESS PERIOD    2
  ---------------------------------------------------------------------------

            1           2           3           4           5
 ............................................................
   1    9.997       7.488       4.986       2.491      2.9859E-03
   2    9.997       7.488       4.986       2.491      2.9859E-03
   3    9.997       7.488       4.986       2.491      2.9859E-03
   4    9.997       7.488       4.986       2.491      2.9859E-03
   5    9.997       7.488       4.986       2.491      2.9859E-03
1
              HEAD IN LAYER   2 AT END OF TIME STEP  39 IN STRESS PERIOD    2
  ---------------------------------------------------------------------------

            1           2           3           4           5
 ............................................................
   1    9.997       7.488       4.986       2.491      2.9859E-03
   2    9.997       7.488       4.986       2.491      2.9859E-03
   3    9.997       7.488       4.986       2.491      2.9859E-03
   4    9.997       7.488       4.986       2.491      2.9859E-03
   5    9.997       7.488       4.986       2.491      2.9859E-03
1
              HEAD IN LAYER   3 AT END OF TIME STEP  39 IN STRESS PERIOD    2
  ---------------------------------------------------------------------------

            1           2           3           4           5
 ............................................................
   1    9.997       7.488       4.986       2.491      2.9859E-03
   2    9.997       7.488       4.986       2.491      2.9859E-03
   3    9.997       7.488       4.986       2.491      2.9859E-03
   4    9.997       7.488       4.986       2.491      2.9859E-03
   5    9.997       7.488       4.986       2.491      2.9859E-03
1
              HEAD IN LAYER   4 AT END OF TIME STEP  39 IN STRESS PERIOD    2
  ---------------------------------------------------------------------------

            1           2           3           4           5
 ............................................................
   1    9.997       7.488       4.986       2.491      2.9859E-03
   2    9.997       7.488       4.986       2.491      2.9859E-03
   3    9.997       7.488       4.986       2.491      2.9859E-03
   4    9.997       7.488       4.986       2.491      2.9859E-03
   5    9.997       7.488       4.986       2.491      2.9859E-03
1
              HEAD IN LAYER   5 AT END OF TIME STEP  39 IN STRESS PERIOD    2
  ---------------------------------------------------------------------------

            1           2           3           4           5
 ............................................................
   1    9.997       7.488       4.986       2.491      2.9859E-03
   2    9.997       7.488       4.986       2.491      2.9859E-03
   3    9.997       7.488       4.986       2.491      2.9859E-03
   4    9.997       7.488       4.986       2.491      2.9859E-03
   5    9.997       7.488       4.986       2.491      2.9859E-03

 HEAD WILL BE SAVED ON UNIT   51 AT END OF TIME STEP   39, STRESS PERIOD    2

 DRAWDOWN WILL BE SAVED ON UNIT   52 AT END OF TIME STEP   39, STRESS PERIOD    2
1
  VOLUMETRIC BUDGET FOR ENTIRE MODEL AT END OF TIME STEP   39, STRESS PERIOD   2
  ------------------------------------------------------------------------------

     CUMULATIVE VOLUMES      L**3       RATES FOR THIS TIME STEP      L**3/T
     ------------------                 ------------------------

           IN:                                      IN:
           ---                                      ---
             STORAGE =           0.0000               STORAGE =           0.0000
       CONSTANT HEAD =           0.0000         CONSTANT HEAD =           0.0000
               WELLS =           0.0000                 WELLS =           0.0000
     HEAD DEP BOUNDS =       40834.3672       HEAD DEP BOUNDS =         752.6218

            TOTAL IN =       40834.3672              TOTAL IN =         752.6218

          OUT:                                     OUT:
          ----                                     ----
             STORAGE =       14958.4834               STORAGE =           6.2332
       CONSTANT HEAD =           0.0000         CONSTANT HEAD =           0.0000
               WELLS =           0.0000                 WELLS =           0.0000
     HEAD DEP BOUNDS =       25875.8027       HEAD DEP BOUNDS =         746.4709

           TOTAL OUT =       40834.2852             TOTAL OUT =         752.7042

            IN - OUT =       8.2031E-02              IN - OUT =      -8.2397E-02

 PERCENT DISCREPANCY =           0.00     PERCENT DISCREPANCY =          -0.01






         TIME SUMMARY AT END OF TIME STEP   39 IN STRESS PERIOD    2
                    SECONDS     MINUTES      HOURS       DAYS        YEARS
                    -----------------------------------------------------------
   TIME STEP LENGTH  86400.      1440.0      24.000      1.0000     2.73785E-03
 STRESS PERIOD TIME 3.36960E+06  56160.      936.00      39.000     0.10678    
         TOTAL TIME 3.45600E+06  57600.      960.00      40.000     0.10951    
1
 
 SOLVING FOR HEAD 

 OUTPUT CONTROL FOR STRESS PERIOD    2   TIME STEP   40
    SAVE HEAD FOR ALL LAYERS
    SAVE DRAWDOWN FOR ALL LAYERS
    SAVE BUDGET
    PRINT HEAD FOR ALL LAYERS
    PRINT BUDGET
 UBDSV1 SAVING "         STORAGE" ON UNIT  53 AT TIME STEP 40, STRESS PERIOD   2
 UBDSV2 SAVING "   CONSTANT HEAD" ON UNIT  53 AT TIME STEP 40, STRESS PERIOD   2
 UBDSV1 SAVING "FLOW RIGHT FACE " ON UNIT  53 AT TIME STEP 40, STRESS PERIOD   2
 UBDSV1 SAVING "FLOW FRONT FACE " ON UNIT  53 AT TIME STEP 40, STRESS PERIOD   2
 UBDSV1 SAVING "FLOW LOWER FACE " ON UNIT  53 AT TIME STEP 40, STRESS PERIOD   2
1
              HEAD IN LAYER   1 AT END OF TIME STEP  40 IN STRESS PERIOD    2
  ---------------------------------------------------------------------------

            1           2           3           4           5
 ............................................................
   1    9.997       7.490       4.987       2.493      2.9875E-03
   2    9.997       7.490       4.987       2.493      2.9875E-03
   3    9.997       7.490       4.987       2.493      2.9875E-03
   4    9.997       7.490       4.987       2.493      2.9875E-03
   5    9.997       7.490       4.987       2.493      2.9875E-03
1
              HEAD IN LAYER   2 AT END OF TIME STEP  40 IN STRESS PERIOD    2
  ---------------------------------------------------------------------------

            1           2           3           4           5
 ............................................................
   1    9.997       7.490       4.987       2.493      2.9875E-03
   2    9.997       7.490       4.987       2.493      2.9875E-03
   3    9.997       7.490       4.987       2.493      2.9875E-03
   4    9.997       7.490       4.987       2.493      2.9875E-03
   5    9.997       7.490       4.987       2.493      2.9875E-03
1
              HEAD IN LAYER   3 AT END OF TIME STEP  40 IN STRESS PERIOD    2
  ---------------------------------------------------------------------------

            1           2           3           4           5
 ............................................................
   1    9.997       7.490       4.987       2.493      2.9875E-03
   2    9.997       7.490       4.987       2.493      2.9875E-03
   3    9.997       7.490       4.987       2.493      2.9875E-03
   4    9.997       7.490       4.987       2.493      2.9875E-03
   5    9.997       7.490       4.987       2.493      2.9875E-03
1
              HEAD IN LAYER   4 AT END OF TIME STEP  40 IN STRESS PERIOD    2
  ---------------------------------------------------------------------------

            1           2           3           4           5
 ............................................................
   1    9.997       7.490       4.987       2.493      2.9875E-03
   2    9.997       7.490       4.987       2.493      2.9875E-03
   3    9.997       7.490       4.987       2.493      2.9875E-03
   4    9.997       7.490       4.987       2.493      2.9875E-03
   5    9.997       7.490       4.987       2.493      2.9875E-03
1
              HEAD IN LAYER   5 AT END OF TIME STEP  40 IN STRESS PERIOD    2
  ---------------------------------------------------------------------------

            1           2           3           4           5
 ............................................................
   1    9.997       7.490       4.987       2.493      2.9875E-03
   2    9.997       7.490       4.987       2.493      2.9875E-03
   3    9.997       7.490       4.987       2.493      2.9875E-03
   4    9.997       7.490       4.987       2.493      2.9875E-03
   5    9.997       7.490       4.987       2.493      2.9875E-03

 HEAD WILL BE SAVED ON UNIT   51 AT END OF TIME STEP   40, STRESS PERIOD    2

 DRAWDOWN WILL BE SAVED ON UNIT   52 AT END OF TIME STEP   40, STRESS PERIOD    2
1
  VOLUMETRIC BUDGET FOR ENTIRE MODEL AT END OF TIME STEP   40, STRESS PERIOD   2
  ------------------------------------------------------------------------------

     CUMULATIVE VOLUMES      L**3       RATES FOR THIS TIME STEP      L**3/T
     ------------------                 ------------------------

           IN:                                      IN:
           ---                                      ---
             STORAGE =           0.0000               STORAGE =           0.0000
       CONSTANT HEAD =           0.0000         CONSTANT HEAD =           0.0000
               WELLS =           0.0000                 WELLS =           0.0000
     HEAD DEP BOUNDS =       41586.5938       HEAD DEP BOUNDS =         752.2259

            TOTAL IN =       41586.5938              TOTAL IN =         752.2259

          OUT:                                     OUT:
          ----                                     ----
             STORAGE =       14963.9219               STORAGE =           5.4384
       CONSTANT HEAD =           0.0000         CONSTANT HEAD =           0.0000
               WELLS =           0.0000                 WELLS =           0.0000
     HEAD DEP BOUNDS =       26622.6719       HEAD DEP BOUNDS =         746.8688

           TOTAL OUT =       41586.5938             TOTAL OUT =         752.3072

            IN - OUT =           0.0000              IN - OUT =      -8.1299E-02

 PERCENT DISCREPANCY =           0.00     PERCENT DISCREPANCY =          -0.01






         TIME SUMMARY AT END OF TIME STEP   40 IN STRESS PERIOD    2
                    SECONDS     MINUTES      HOURS       DAYS        YEARS
                    -----------------------------------------------------------
   TIME STEP LENGTH  86400.      1440.0      24.000      1.0000     2.73785E-03
 STRESS PERIOD TIME 3.45600E+06  57600.      960.00      40.000     0.10951    
         TOTAL TIME 3.54240E+06  59040.      984.00      41.000     0.11225    
1
 
 SOLVING FOR HEAD 

 OUTPUT CONTROL FOR STRESS PERIOD    2   TIME STEP   41
    SAVE HEAD FOR ALL LAYERS
    SAVE DRAWDOWN FOR ALL LAYERS
    SAVE BUDGET
    PRINT HEAD FOR ALL LAYERS
    PRINT BUDGET
 UBDSV1 SAVING "         STORAGE" ON UNIT  53 AT TIME STEP 41, STRESS PERIOD   2
 UBDSV2 SAVING "   CONSTANT HEAD" ON UNIT  53 AT TIME STEP 41, STRESS PERIOD   2
 UBDSV1 SAVING "FLOW RIGHT FACE " ON UNIT  53 AT TIME STEP 41, STRESS PERIOD   2
 UBDSV1 SAVING "FLOW FRONT FACE " ON UNIT  53 AT TIME STEP 41, STRESS PERIOD   2
 UBDSV1 SAVING "FLOW LOWER FACE " ON UNIT  53 AT TIME STEP 41, STRESS PERIOD   2
1
              HEAD IN LAYER   1 AT END OF TIME STEP  41 IN STRESS PERIOD    2
  ---------------------------------------------------------------------------

            1           2           3           4           5
 ............................................................
   1    9.997       7.491       4.989       2.494      2.9889E-03
   2    9.997       7.491       4.989       2.494      2.9889E-03
   3    9.997       7.491       4.989       2.494      2.9889E-03
   4    9.997       7.491       4.989       2.494      2.9889E-03
   5    9.997       7.491       4.989       2.494      2.9889E-03
1
              HEAD IN LAYER   2 AT END OF TIME STEP  41 IN STRESS PERIOD    2
  ---------------------------------------------------------------------------

            1           2           3           4           5
 ............................................................
   1    9.997       7.491       4.989       2.494      2.9889E-03
   2    9.997       7.491       4.989       2.494      2.9889E-03
   3    9.997       7.491       4.989       2.494      2.9889E-03
   4    9.997       7.491       4.989       2.494      2.9889E-03
   5    9.997       7.491       4.989       2.494      2.9889E-03
1
              HEAD IN LAYER   3 AT END OF TIME STEP  41 IN STRESS PERIOD    2
  ---------------------------------------------------------------------------

            1           2           3           4           5
 ............................................................
   1    9.997       7.491       4.989       2.494      2.9889E-03
   2    9.997       7.491       4.989       2.494      2.9889E-03
   3    9.997       7.491       4.989       2.494      2.9889E-03
   4    9.997       7.491       4.989       2.494      2.9889E-03
   5    9.997       7.491       4.989       2.494      2.9889E-03
1
              HEAD IN LAYER   4 AT END OF TIME STEP  41 IN STRESS PERIOD    2
  ---------------------------------------------------------------------------

            1           2           3           4           5
 ............................................................
   1    9.997       7.491       4.989       2.494      2.9889E-03
   2    9.997       7.491       4.989       2.494      2.9889E-03
   3    9.997       7.491       4.989       2.494      2.9889E-03
   4    9.997       7.491       4.989       2.494      2.9889E-03
   5    9.997       7.491       4.989       2.494      2.9889E-03
1
              HEAD IN LAYER   5 AT END OF TIME STEP  41 IN STRESS PERIOD    2
  ---------------------------------------------------------------------------

            1           2           3           4           5
 ............................................................
   1    9.997       7.491       4.989       2.494      2.9889E-03
   2    9.997       7.491       4.989       2.494      2.9889E-03
   3    9.997       7.491       4.989       2.494      2.9889E-03
   4    9.997       7.491       4.989       2.494      2.9889E-03
   5    9.997       7.491       4.989       2.494      2.9889E-03

 HEAD WILL BE SAVED ON UNIT   51 AT END OF TIME STEP   41, STRESS PERIOD    2

 DRAWDOWN WILL BE SAVED ON UNIT   52 AT END OF TIME STEP   41, STRESS PERIOD    2
1
  VOLUMETRIC BUDGET FOR ENTIRE MODEL AT END OF TIME STEP   41, STRESS PERIOD   2
  ------------------------------------------------------------------------------

     CUMULATIVE VOLUMES      L**3       RATES FOR THIS TIME STEP      L**3/T
     ------------------                 ------------------------

           IN:                                      IN:
           ---                                      ---
             STORAGE =           0.0000               STORAGE =           0.0000
       CONSTANT HEAD =           0.0000         CONSTANT HEAD =           0.0000
               WELLS =           0.0000                 WELLS =           0.0000
     HEAD DEP BOUNDS =       42338.4727       HEAD DEP BOUNDS =         751.8804

            TOTAL IN =       42338.4727              TOTAL IN =         751.8804

          OUT:                                     OUT:
          ----                                     ----
             STORAGE =       14968.6650               STORAGE =           4.7435
       CONSTANT HEAD =           0.0000         CONSTANT HEAD =           0.0000
               WELLS =           0.0000                 WELLS =           0.0000
     HEAD DEP BOUNDS =       27369.8867       HEAD DEP BOUNDS =         747.2157

           TOTAL OUT =       42338.5508             TOTAL OUT =         751.9592

            IN - OUT =      -7.8125E-02              IN - OUT =      -7.8796E-02

 PERCENT DISCREPANCY =          -0.00     PERCENT DISCREPANCY =          -0.01






         TIME SUMMARY AT END OF TIME STEP   41 IN STRESS PERIOD    2
                    SECONDS     MINUTES      HOURS       DAYS        YEARS
                    -----------------------------------------------------------
   TIME STEP LENGTH  86400.      1440.0      24.000      1.0000     2.73785E-03
 STRESS PERIOD TIME 3.54240E+06  59040.      984.00      41.000     0.11225    
         TOTAL TIME 3.62880E+06  60480.      1008.0      42.000     0.11499    
1
 
 SOLVING FOR HEAD 

 OUTPUT CONTROL FOR STRESS PERIOD    2   TIME STEP   42
    SAVE HEAD FOR ALL LAYERS
    SAVE DRAWDOWN FOR ALL LAYERS
    SAVE BUDGET
    PRINT HEAD FOR ALL LAYERS
    PRINT BUDGET
 UBDSV1 SAVING "         STORAGE" ON UNIT  53 AT TIME STEP 42, STRESS PERIOD   2
 UBDSV2 SAVING "   CONSTANT HEAD" ON UNIT  53 AT TIME STEP 42, STRESS PERIOD   2
 UBDSV1 SAVING "FLOW RIGHT FACE " ON UNIT  53 AT TIME STEP 42, STRESS PERIOD   2
 UBDSV1 SAVING "FLOW FRONT FACE " ON UNIT  53 AT TIME STEP 42, STRESS PERIOD   2
 UBDSV1 SAVING "FLOW LOWER FACE " ON UNIT  53 AT TIME STEP 42, STRESS PERIOD   2
1
              HEAD IN LAYER   1 AT END OF TIME STEP  42 IN STRESS PERIOD    2
  ---------------------------------------------------------------------------

            1           2           3           4           5
 ............................................................
   1    9.997       7.492       4.990       2.495      2.9901E-03
   2    9.997       7.492       4.990       2.495      2.9901E-03
   3    9.997       7.492       4.990       2.495      2.9901E-03
   4    9.997       7.492       4.990       2.495      2.9901E-03
   5    9.997       7.492       4.990       2.495      2.9901E-03
1
              HEAD IN LAYER   2 AT END OF TIME STEP  42 IN STRESS PERIOD    2
  ---------------------------------------------------------------------------

            1           2           3           4           5
 ............................................................
   1    9.997       7.492       4.990       2.495      2.9901E-03
   2    9.997       7.492       4.990       2.495      2.9901E-03
   3    9.997       7.492       4.990       2.495      2.9901E-03
   4    9.997       7.492       4.990       2.495      2.9901E-03
   5    9.997       7.492       4.990       2.495      2.9901E-03
1
              HEAD IN LAYER   3 AT END OF TIME STEP  42 IN STRESS PERIOD    2
  ---------------------------------------------------------------------------

            1           2           3           4           5
 ............................................................
   1    9.997       7.492       4.990       2.495      2.9901E-03
   2    9.997       7.492       4.990       2.495      2.9901E-03
   3    9.997       7.492       4.990       2.495      2.9901E-03
   4    9.997       7.492       4.990       2.495      2.9901E-03
   5    9.997       7.492       4.990       2.495      2.9901E-03
1
              HEAD IN LAYER   4 AT END OF TIME STEP  42 IN STRESS PERIOD    2
  ---------------------------------------------------------------------------

            1           2           3           4           5
 ............................................................
   1    9.997       7.492       4.990       2.495      2.9901E-03
   2    9.997       7.492       4.990       2.495      2.9901E-03
   3    9.997       7.492       4.990       2.495      2.9901E-03
   4    9.997       7.492       4.990       2.495      2.9901E-03
   5    9.997       7.492       4.990       2.495      2.9901E-03
1
              HEAD IN LAYER   5 AT END OF TIME STEP  42 IN STRESS PERIOD    2
  ---------------------------------------------------------------------------

            1           2           3           4           5
 ............................................................
   1    9.997       7.492       4.990       2.495      2.9901E-03
   2    9.997       7.492       4.990       2.495      2.9901E-03
   3    9.997       7.492       4.990       2.495      2.9901E-03
   4    9.997       7.492       4.990       2.495      2.9901E-03
   5    9.997       7.492       4.990       2.495      2.9901E-03

 HEAD WILL BE SAVED ON UNIT   51 AT END OF TIME STEP   42, STRESS PERIOD    2

 DRAWDOWN WILL BE SAVED ON UNIT   52 AT END OF TIME STEP   42, STRESS PERIOD    2
1
  VOLUMETRIC BUDGET FOR ENTIRE MODEL AT END OF TIME STEP   42, STRESS PERIOD   2
  ------------------------------------------------------------------------------

     CUMULATIVE VOLUMES      L**3       RATES FOR THIS TIME STEP      L**3/T
     ------------------                 ------------------------

           IN:                                      IN:
           ---                                      ---
             STORAGE =           0.0000               STORAGE =           0.0000
       CONSTANT HEAD =           0.0000         CONSTANT HEAD =           0.0000
               WELLS =           0.0000                 WELLS =           0.0000
     HEAD DEP BOUNDS =       43090.0508       HEAD DEP BOUNDS =         751.5791

            TOTAL IN =       43090.0508              TOTAL IN =         751.5791

          OUT:                                     OUT:
          ----                                     ----
             STORAGE =       14972.8037               STORAGE =           4.1382
       CONSTANT HEAD =           0.0000         CONSTANT HEAD =           0.0000
               WELLS =           0.0000                 WELLS =           0.0000
     HEAD DEP BOUNDS =       28117.4043       HEAD DEP BOUNDS =         747.5185

           TOTAL OUT =       43090.2070             TOTAL OUT =         751.6567

            IN - OUT =          -0.1562              IN - OUT =      -7.7576E-02

 PERCENT DISCREPANCY =          -0.00     PERCENT DISCREPANCY =          -0.01






         TIME SUMMARY AT END OF TIME STEP   42 IN STRESS PERIOD    2
                    SECONDS     MINUTES      HOURS       DAYS        YEARS
                    -----------------------------------------------------------
   TIME STEP LENGTH  86400.      1440.0      24.000      1.0000     2.73785E-03
 STRESS PERIOD TIME 3.62880E+06  60480.      1008.0      42.000     0.11499    
         TOTAL TIME 3.71520E+06  61920.      1032.0      43.000     0.11773    
1
 
 SOLVING FOR HEAD 

 OUTPUT CONTROL FOR STRESS PERIOD    2   TIME STEP   43
    SAVE HEAD FOR ALL LAYERS
    SAVE DRAWDOWN FOR ALL LAYERS
    SAVE BUDGET
    PRINT HEAD FOR ALL LAYERS
    PRINT BUDGET
 UBDSV1 SAVING "         STORAGE" ON UNIT  53 AT TIME STEP 43, STRESS PERIOD   2
 UBDSV2 SAVING "   CONSTANT HEAD" ON UNIT  53 AT TIME STEP 43, STRESS PERIOD   2
 UBDSV1 SAVING "FLOW RIGHT FACE " ON UNIT  53 AT TIME STEP 43, STRESS PERIOD   2
 UBDSV1 SAVING "FLOW FRONT FACE " ON UNIT  53 AT TIME STEP 43, STRESS PERIOD   2
 UBDSV1 SAVING "FLOW LOWER FACE " ON UNIT  53 AT TIME STEP 43, STRESS PERIOD   2
1
              HEAD IN LAYER   1 AT END OF TIME STEP  43 IN STRESS PERIOD    2
  ---------------------------------------------------------------------------

            1           2           3           4           5
 ............................................................
   1    9.997       7.493       4.992       2.496      2.9911E-03
   2    9.997       7.493       4.992       2.496      2.9911E-03
   3    9.997       7.493       4.992       2.496      2.9911E-03
   4    9.997       7.493       4.992       2.496      2.9911E-03
   5    9.997       7.493       4.992       2.496      2.9911E-03
1
              HEAD IN LAYER   2 AT END OF TIME STEP  43 IN STRESS PERIOD    2
  ---------------------------------------------------------------------------

            1           2           3           4           5
 ............................................................
   1    9.997       7.493       4.992       2.496      2.9911E-03
   2    9.997       7.493       4.992       2.496      2.9911E-03
   3    9.997       7.493       4.992       2.496      2.9911E-03
   4    9.997       7.493       4.992       2.496      2.9911E-03
   5    9.997       7.493       4.992       2.496      2.9911E-03
1
              HEAD IN LAYER   3 AT END OF TIME STEP  43 IN STRESS PERIOD    2
  ---------------------------------------------------------------------------

            1           2           3           4           5
 ............................................................
   1    9.997       7.493       4.992       2.496      2.9911E-03
   2    9.997       7.493       4.992       2.496      2.9911E-03
   3    9.997       7.493       4.992       2.496      2.9911E-03
   4    9.997       7.493       4.992       2.496      2.9911E-03
   5    9.997       7.493       4.992       2.496      2.9911E-03
1
              HEAD IN LAYER   4 AT END OF TIME STEP  43 IN STRESS PERIOD    2
  ---------------------------------------------------------------------------

            1           2           3           4           5
 ............................................................
   1    9.997       7.493       4.992       2.496      2.9911E-03
   2    9.997       7.493       4.992       2.496      2.9911E-03
   3    9.997       7.493       4.992       2.496      2.9911E-03
   4    9.997       7.493       4.992       2.496      2.9911E-03
   5    9.997       7.493       4.992       2.496      2.9911E-03
1
              HEAD IN LAYER   5 AT END OF TIME STEP  43 IN STRESS PERIOD    2
  ---------------------------------------------------------------------------

            1           2           3           4           5
 ............................................................
   1    9.997       7.493       4.992       2.496      2.9911E-03
   2    9.997       7.493       4.992       2.496      2.9911E-03
   3    9.997       7.493       4.992       2.496      2.9911E-03
   4    9.997       7.493       4.992       2.496      2.9911E-03
   5    9.997       7.493       4.992       2.496      2.9911E-03

 HEAD WILL BE SAVED ON UNIT   51 AT END OF TIME STEP   43, STRESS PERIOD    2

 DRAWDOWN WILL BE SAVED ON UNIT   52 AT END OF TIME STEP   43, STRESS PERIOD    2
1
  VOLUMETRIC BUDGET FOR ENTIRE MODEL AT END OF TIME STEP   43, STRESS PERIOD   2
  ------------------------------------------------------------------------------

     CUMULATIVE VOLUMES      L**3       RATES FOR THIS TIME STEP      L**3/T
     ------------------                 ------------------------

           IN:                                      IN:
           ---                                      ---
             STORAGE =           0.0000               STORAGE =           0.0000
       CONSTANT HEAD =           0.0000         CONSTANT HEAD =           0.0000
               WELLS =           0.0000                 WELLS =           0.0000
     HEAD DEP BOUNDS =       43841.3672       HEAD DEP BOUNDS =         751.3162

            TOTAL IN =       43841.3672              TOTAL IN =         751.3162

          OUT:                                     OUT:
          ----                                     ----
             STORAGE =       14976.4141               STORAGE =           3.6102
       CONSTANT HEAD =           0.0000         CONSTANT HEAD =           0.0000
               WELLS =           0.0000                 WELLS =           0.0000
     HEAD DEP BOUNDS =       28865.1875       HEAD DEP BOUNDS =         747.7826

           TOTAL OUT =       43841.6016             TOTAL OUT =         751.3928

            IN - OUT =          -0.2344              IN - OUT =      -7.6599E-02

 PERCENT DISCREPANCY =          -0.00     PERCENT DISCREPANCY =          -0.01






         TIME SUMMARY AT END OF TIME STEP   43 IN STRESS PERIOD    2
                    SECONDS     MINUTES      HOURS       DAYS        YEARS
                    -----------------------------------------------------------
   TIME STEP LENGTH  86400.      1440.0      24.000      1.0000     2.73785E-03
 STRESS PERIOD TIME 3.71520E+06  61920.      1032.0      43.000     0.11773    
         TOTAL TIME 3.80160E+06  63360.      1056.0      44.000     0.12047    
1
 
 SOLVING FOR HEAD 

 OUTPUT CONTROL FOR STRESS PERIOD    2   TIME STEP   44
    SAVE HEAD FOR ALL LAYERS
    SAVE DRAWDOWN FOR ALL LAYERS
    SAVE BUDGET
    PRINT HEAD FOR ALL LAYERS
    PRINT BUDGET
 UBDSV1 SAVING "         STORAGE" ON UNIT  53 AT TIME STEP 44, STRESS PERIOD   2
 UBDSV2 SAVING "   CONSTANT HEAD" ON UNIT  53 AT TIME STEP 44, STRESS PERIOD   2
 UBDSV1 SAVING "FLOW RIGHT FACE " ON UNIT  53 AT TIME STEP 44, STRESS PERIOD   2
 UBDSV1 SAVING "FLOW FRONT FACE " ON UNIT  53 AT TIME STEP 44, STRESS PERIOD   2
 UBDSV1 SAVING "FLOW LOWER FACE " ON UNIT  53 AT TIME STEP 44, STRESS PERIOD   2
1
              HEAD IN LAYER   1 AT END OF TIME STEP  44 IN STRESS PERIOD    2
  ---------------------------------------------------------------------------

            1           2           3           4           5
 ............................................................
   1    9.997       7.494       4.993       2.496      2.9921E-03
   2    9.997       7.494       4.993       2.496      2.9921E-03
   3    9.997       7.494       4.993       2.496      2.9921E-03
   4    9.997       7.494       4.993       2.496      2.9921E-03
   5    9.997       7.494       4.993       2.496      2.9921E-03
1
              HEAD IN LAYER   2 AT END OF TIME STEP  44 IN STRESS PERIOD    2
  ---------------------------------------------------------------------------

            1           2           3           4           5
 ............................................................
   1    9.997       7.494       4.993       2.496      2.9921E-03
   2    9.997       7.494       4.993       2.496      2.9921E-03
   3    9.997       7.494       4.993       2.496      2.9921E-03
   4    9.997       7.494       4.993       2.496      2.9921E-03
   5    9.997       7.494       4.993       2.496      2.9921E-03
1
              HEAD IN LAYER   3 AT END OF TIME STEP  44 IN STRESS PERIOD    2
  ---------------------------------------------------------------------------

            1           2           3           4           5
 ............................................................
   1    9.997       7.494       4.993       2.496      2.9921E-03
   2    9.997       7.494       4.993       2.496      2.9921E-03
   3    9.997       7.494       4.993       2.496      2.9921E-03
   4    9.997       7.494       4.993       2.496      2.9921E-03
   5    9.997       7.494       4.993       2.496      2.9921E-03
1
              HEAD IN LAYER   4 AT END OF TIME STEP  44 IN STRESS PERIOD    2
  ---------------------------------------------------------------------------

            1           2           3           4           5
 ............................................................
   1    9.997       7.494       4.993       2.496      2.9921E-03
   2    9.997       7.494       4.993       2.496      2.9921E-03
   3    9.997       7.494       4.993       2.496      2.9921E-03
   4    9.997       7.494       4.993       2.496      2.9921E-03
   5    9.997       7.494       4.993       2.496      2.9921E-03
1
              HEAD IN LAYER   5 AT END OF TIME STEP  44 IN STRESS PERIOD    2
  ---------------------------------------------------------------------------

            1           2           3           4           5
 ............................................................
   1    9.997       7.494       4.993       2.496      2.9921E-03
   2    9.997       7.494       4.993       2.496      2.9921E-03
   3    9.997       7.494       4.993       2.496      2.9921E-03
   4    9.997       7.494       4.993       2.496      2.9921E-03
   5    9.997       7.494       4.993       2.496      2.9921E-03

 HEAD WILL BE SAVED ON UNIT   51 AT END OF TIME STEP   44, STRESS PERIOD    2

 DRAWDOWN WILL BE SAVED ON UNIT   52 AT END OF TIME STEP   44, STRESS PERIOD    2
1
  VOLUMETRIC BUDGET FOR ENTIRE MODEL AT END OF TIME STEP   44, STRESS PERIOD   2
  ------------------------------------------------------------------------------

     CUMULATIVE VOLUMES      L**3       RATES FOR THIS TIME STEP      L**3/T
     ------------------                 ------------------------

           IN:                                      IN:
           ---                                      ---
             STORAGE =           0.0000               STORAGE =           0.0000
       CONSTANT HEAD =           0.0000         CONSTANT HEAD =           0.0000
               WELLS =           0.0000                 WELLS =           0.0000
     HEAD DEP BOUNDS =       44592.4531       HEAD DEP BOUNDS =         751.0869

            TOTAL IN =       44592.4531              TOTAL IN =         751.0869

          OUT:                                     OUT:
          ----                                     ----
             STORAGE =       14979.5635               STORAGE =           3.1497
       CONSTANT HEAD =           0.0000         CONSTANT HEAD =           0.0000
               WELLS =           0.0000                 WELLS =           0.0000
     HEAD DEP BOUNDS =       29613.2012       HEAD DEP BOUNDS =         748.0130

           TOTAL OUT =       44592.7656             TOTAL OUT =         751.1627

            IN - OUT =          -0.3125              IN - OUT =      -7.5806E-02

 PERCENT DISCREPANCY =          -0.00     PERCENT DISCREPANCY =          -0.01






         TIME SUMMARY AT END OF TIME STEP   44 IN STRESS PERIOD    2
                    SECONDS     MINUTES      HOURS       DAYS        YEARS
                    -----------------------------------------------------------
   TIME STEP LENGTH  86400.      1440.0      24.000      1.0000     2.73785E-03
 STRESS PERIOD TIME 3.80160E+06  63360.      1056.0      44.000     0.12047    
         TOTAL TIME 3.88800E+06  64800.      1080.0      45.000     0.12320    
1
 
 SOLVING FOR HEAD 

 OUTPUT CONTROL FOR STRESS PERIOD    2   TIME STEP   45
    SAVE HEAD FOR ALL LAYERS
    SAVE DRAWDOWN FOR ALL LAYERS
    SAVE BUDGET
    PRINT HEAD FOR ALL LAYERS
    PRINT BUDGET
 UBDSV1 SAVING "         STORAGE" ON UNIT  53 AT TIME STEP 45, STRESS PERIOD   2
 UBDSV2 SAVING "   CONSTANT HEAD" ON UNIT  53 AT TIME STEP 45, STRESS PERIOD   2
 UBDSV1 SAVING "FLOW RIGHT FACE " ON UNIT  53 AT TIME STEP 45, STRESS PERIOD   2
 UBDSV1 SAVING "FLOW FRONT FACE " ON UNIT  53 AT TIME STEP 45, STRESS PERIOD   2
 UBDSV1 SAVING "FLOW LOWER FACE " ON UNIT  53 AT TIME STEP 45, STRESS PERIOD   2
1
              HEAD IN LAYER   1 AT END OF TIME STEP  45 IN STRESS PERIOD    2
  ---------------------------------------------------------------------------

            1           2           3           4           5
 ............................................................
   1    9.997       7.494       4.994       2.497      2.9929E-03
   2    9.997       7.494       4.994       2.497      2.9929E-03
   3    9.997       7.494       4.994       2.497      2.9929E-03
   4    9.997       7.494       4.994       2.497      2.9929E-03
   5    9.997       7.494       4.994       2.497      2.9929E-03
1
              HEAD IN LAYER   2 AT END OF TIME STEP  45 IN STRESS PERIOD    2
  ---------------------------------------------------------------------------

            1           2           3           4           5
 ............................................................
   1    9.997       7.494       4.994       2.497      2.9929E-03
   2    9.997       7.494       4.994       2.497      2.9929E-03
   3    9.997       7.494       4.994       2.497      2.9929E-03
   4    9.997       7.494       4.994       2.497      2.9929E-03
   5    9.997       7.494       4.994       2.497      2.9929E-03
1
              HEAD IN LAYER   3 AT END OF TIME STEP  45 IN STRESS PERIOD    2
  ---------------------------------------------------------------------------

            1           2           3           4           5
 ............................................................
   1    9.997       7.494       4.994       2.497      2.9929E-03
   2    9.997       7.494       4.994       2.497      2.9929E-03
   3    9.997       7.494       4.994       2.497      2.9929E-03
   4    9.997       7.494       4.994       2.497      2.9929E-03
   5    9.997       7.494       4.994       2.497      2.9929E-03
1
              HEAD IN LAYER   4 AT END OF TIME STEP  45 IN STRESS PERIOD    2
  ---------------------------------------------------------------------------

            1           2           3           4           5
 ............................................................
   1    9.997       7.494       4.994       2.497      2.9929E-03
   2    9.997       7.494       4.994       2.497      2.9929E-03
   3    9.997       7.494       4.994       2.497      2.9929E-03
   4    9.997       7.494       4.994       2.497      2.9929E-03
   5    9.997       7.494       4.994       2.497      2.9929E-03
1
              HEAD IN LAYER   5 AT END OF TIME STEP  45 IN STRESS PERIOD    2
  ---------------------------------------------------------------------------

            1           2           3           4           5
 ............................................................
   1    9.997       7.494       4.994       2.497      2.9929E-03
   2    9.997       7.494       4.994       2.497      2.9929E-03
   3    9.997       7.494       4.994       2.497      2.9929E-03
   4    9.997       7.494       4.994       2.497      2.9929E-03
   5    9.997       7.494       4.994       2.497      2.9929E-03

 HEAD WILL BE SAVED ON UNIT   51 AT END OF TIME STEP   45, STRESS PERIOD    2

 DRAWDOWN WILL BE SAVED ON UNIT   52 AT END OF TIME STEP   45, STRESS PERIOD    2
1
  VOLUMETRIC BUDGET FOR ENTIRE MODEL AT END OF TIME STEP   45, STRESS PERIOD   2
  ------------------------------------------------------------------------------

     CUMULATIVE VOLUMES      L**3       RATES FOR THIS TIME STEP      L**3/T
     ------------------                 ------------------------

           IN:                                      IN:
           ---                                      ---
             STORAGE =           0.0000               STORAGE =           0.0000
       CONSTANT HEAD =           0.0000         CONSTANT HEAD =           0.0000
               WELLS =           0.0000                 WELLS =           0.0000
     HEAD DEP BOUNDS =       45343.3398       HEAD DEP BOUNDS =         750.8868

            TOTAL IN =       45343.3398              TOTAL IN =         750.8868

          OUT:                                     OUT:
          ----                                     ----
             STORAGE =       14982.3096               STORAGE =           2.7464
       CONSTANT HEAD =           0.0000         CONSTANT HEAD =           0.0000
               WELLS =           0.0000                 WELLS =           0.0000
     HEAD DEP BOUNDS =       30361.4160       HEAD DEP BOUNDS =         748.2140

           TOTAL OUT =       45343.7266             TOTAL OUT =         750.9604

            IN - OUT =          -0.3867              IN - OUT =      -7.3547E-02

 PERCENT DISCREPANCY =          -0.00     PERCENT DISCREPANCY =          -0.01






         TIME SUMMARY AT END OF TIME STEP   45 IN STRESS PERIOD    2
                    SECONDS     MINUTES      HOURS       DAYS        YEARS
                    -----------------------------------------------------------
   TIME STEP LENGTH  86400.      1440.0      24.000      1.0000     2.73785E-03
 STRESS PERIOD TIME 3.88800E+06  64800.      1080.0      45.000     0.12320    
         TOTAL TIME 3.97440E+06  66240.      1104.0      46.000     0.12594    
1
 
 SOLVING FOR HEAD 

 OUTPUT CONTROL FOR STRESS PERIOD    2   TIME STEP   46
    SAVE HEAD FOR ALL LAYERS
    SAVE DRAWDOWN FOR ALL LAYERS
    SAVE BUDGET
    PRINT HEAD FOR ALL LAYERS
    PRINT BUDGET
 UBDSV1 SAVING "         STORAGE" ON UNIT  53 AT TIME STEP 46, STRESS PERIOD   2
 UBDSV2 SAVING "   CONSTANT HEAD" ON UNIT  53 AT TIME STEP 46, STRESS PERIOD   2
 UBDSV1 SAVING "FLOW RIGHT FACE " ON UNIT  53 AT TIME STEP 46, STRESS PERIOD   2
 UBDSV1 SAVING "FLOW FRONT FACE " ON UNIT  53 AT TIME STEP 46, STRESS PERIOD   2
 UBDSV1 SAVING "FLOW LOWER FACE " ON UNIT  53 AT TIME STEP 46, STRESS PERIOD   2
1
              HEAD IN LAYER   1 AT END OF TIME STEP  46 IN STRESS PERIOD    2
  ---------------------------------------------------------------------------

            1           2           3           4           5
 ............................................................
   1    9.997       7.495       4.995       2.498      2.9936E-03
   2    9.997       7.495       4.995       2.498      2.9936E-03
   3    9.997       7.495       4.995       2.498      2.9936E-03
   4    9.997       7.495       4.995       2.498      2.9936E-03
   5    9.997       7.495       4.995       2.498      2.9936E-03
1
              HEAD IN LAYER   2 AT END OF TIME STEP  46 IN STRESS PERIOD    2
  ---------------------------------------------------------------------------

            1           2           3           4           5
 ............................................................
   1    9.997       7.495       4.995       2.498      2.9936E-03
   2    9.997       7.495       4.995       2.498      2.9936E-03
   3    9.997       7.495       4.995       2.498      2.9936E-03
   4    9.997       7.495       4.995       2.498      2.9936E-03
   5    9.997       7.495       4.995       2.498      2.9936E-03
1
              HEAD IN LAYER   3 AT END OF TIME STEP  46 IN STRESS PERIOD    2
  ---------------------------------------------------------------------------

            1           2           3           4           5
 ............................................................
   1    9.997       7.495       4.995       2.498      2.9936E-03
   2    9.997       7.495       4.995       2.498      2.9936E-03
   3    9.997       7.495       4.995       2.498      2.9936E-03
   4    9.997       7.495       4.995       2.498      2.9936E-03
   5    9.997       7.495       4.995       2.498      2.9936E-03
1
              HEAD IN LAYER   4 AT END OF TIME STEP  46 IN STRESS PERIOD    2
  ---------------------------------------------------------------------------

            1           2           3           4           5
 ............................................................
   1    9.997       7.495       4.995       2.498      2.9936E-03
   2    9.997       7.495       4.995       2.498      2.9936E-03
   3    9.997       7.495       4.995       2.498      2.9936E-03
   4    9.997       7.495       4.995       2.498      2.9936E-03
   5    9.997       7.495       4.995       2.498      2.9936E-03
1
              HEAD IN LAYER   5 AT END OF TIME STEP  46 IN STRESS PERIOD    2
  ---------------------------------------------------------------------------

            1           2           3           4           5
 ............................................................
   1    9.997       7.495       4.995       2.498      2.9936E-03
   2    9.997       7.495       4.995       2.498      2.9936E-03
   3    9.997       7.495       4.995       2.498      2.9936E-03
   4    9.997       7.495       4.995       2.498      2.9936E-03
   5    9.997       7.495       4.995       2.498      2.9936E-03

 HEAD WILL BE SAVED ON UNIT   51 AT END OF TIME STEP   46, STRESS PERIOD    2

 DRAWDOWN WILL BE SAVED ON UNIT   52 AT END OF TIME STEP   46, STRESS PERIOD    2
1
  VOLUMETRIC BUDGET FOR ENTIRE MODEL AT END OF TIME STEP   46, STRESS PERIOD   2
  ------------------------------------------------------------------------------

     CUMULATIVE VOLUMES      L**3       RATES FOR THIS TIME STEP      L**3/T
     ------------------                 ------------------------

           IN:                                      IN:
           ---                                      ---
             STORAGE =           0.0000               STORAGE =           0.0000
       CONSTANT HEAD =           0.0000         CONSTANT HEAD =           0.0000
               WELLS =           0.0000                 WELLS =           0.0000
     HEAD DEP BOUNDS =       46094.0508       HEAD DEP BOUNDS =         750.7123

            TOTAL IN =       46094.0508              TOTAL IN =         750.7123

          OUT:                                     OUT:
          ----                                     ----
             STORAGE =       14984.7061               STORAGE =           2.3969
       CONSTANT HEAD =           0.0000         CONSTANT HEAD =           0.0000
               WELLS =           0.0000                 WELLS =           0.0000
     HEAD DEP BOUNDS =       31109.8047       HEAD DEP BOUNDS =         748.3893

           TOTAL OUT =       46094.5117             TOTAL OUT =         750.7863

            IN - OUT =          -0.4609              IN - OUT =      -7.3975E-02

 PERCENT DISCREPANCY =          -0.00     PERCENT DISCREPANCY =          -0.01






         TIME SUMMARY AT END OF TIME STEP   46 IN STRESS PERIOD    2
                    SECONDS     MINUTES      HOURS       DAYS        YEARS
                    -----------------------------------------------------------
   TIME STEP LENGTH  86400.      1440.0      24.000      1.0000     2.73785E-03
 STRESS PERIOD TIME 3.97440E+06  66240.      1104.0      46.000     0.12594    
         TOTAL TIME 4.06080E+06  67680.      1128.0      47.000     0.12868    
1
 
 SOLVING FOR HEAD 

 OUTPUT CONTROL FOR STRESS PERIOD    2   TIME STEP   47
    SAVE HEAD FOR ALL LAYERS
    SAVE DRAWDOWN FOR ALL LAYERS
    SAVE BUDGET
    PRINT HEAD FOR ALL LAYERS
    PRINT BUDGET
 UBDSV1 SAVING "         STORAGE" ON UNIT  53 AT TIME STEP 47, STRESS PERIOD   2
 UBDSV2 SAVING "   CONSTANT HEAD" ON UNIT  53 AT TIME STEP 47, STRESS PERIOD   2
 UBDSV1 SAVING "FLOW RIGHT FACE " ON UNIT  53 AT TIME STEP 47, STRESS PERIOD   2
 UBDSV1 SAVING "FLOW FRONT FACE " ON UNIT  53 AT TIME STEP 47, STRESS PERIOD   2
 UBDSV1 SAVING "FLOW LOWER FACE " ON UNIT  53 AT TIME STEP 47, STRESS PERIOD   2
1
              HEAD IN LAYER   1 AT END OF TIME STEP  47 IN STRESS PERIOD    2
  ---------------------------------------------------------------------------

            1           2           3           4           5
 ............................................................
   1    9.997       7.495       4.995       2.498      2.9942E-03
   2    9.997       7.495       4.995       2.498      2.9942E-03
   3    9.997       7.495       4.995       2.498      2.9942E-03
   4    9.997       7.495       4.995       2.498      2.9942E-03
   5    9.997       7.495       4.995       2.498      2.9942E-03
1
              HEAD IN LAYER   2 AT END OF TIME STEP  47 IN STRESS PERIOD    2
  ---------------------------------------------------------------------------

            1           2           3           4           5
 ............................................................
   1    9.997       7.495       4.995       2.498      2.9942E-03
   2    9.997       7.495       4.995       2.498      2.9942E-03
   3    9.997       7.495       4.995       2.498      2.9942E-03
   4    9.997       7.495       4.995       2.498      2.9942E-03
   5    9.997       7.495       4.995       2.498      2.9942E-03
1
              HEAD IN LAYER   3 AT END OF TIME STEP  47 IN STRESS PERIOD    2
  ---------------------------------------------------------------------------

            1           2           3           4           5
 ............................................................
   1    9.997       7.495       4.995       2.498      2.9942E-03
   2    9.997       7.495       4.995       2.498      2.9942E-03
   3    9.997       7.495       4.995       2.498      2.9942E-03
   4    9.997       7.495       4.995       2.498      2.9942E-03
   5    9.997       7.495       4.995       2.498      2.9942E-03
1
              HEAD IN LAYER   4 AT END OF TIME STEP  47 IN STRESS PERIOD    2
  ---------------------------------------------------------------------------

            1           2           3           4           5
 ............................................................
   1    9.997       7.495       4.995       2.498      2.9942E-03
   2    9.997       7.495       4.995       2.498      2.9942E-03
   3    9.997       7.495       4.995       2.498      2.9942E-03
   4    9.997       7.495       4.995       2.498      2.9942E-03
   5    9.997       7.495       4.995       2.498      2.9942E-03
1
              HEAD IN LAYER   5 AT END OF TIME STEP  47 IN STRESS PERIOD    2
  ---------------------------------------------------------------------------

            1           2           3           4           5
 ............................................................
   1    9.997       7.495       4.995       2.498      2.9942E-03
   2    9.997       7.495       4.995       2.498      2.9942E-03
   3    9.997       7.495       4.995       2.498      2.9942E-03
   4    9.997       7.495       4.995       2.498      2.9942E-03
   5    9.997       7.495       4.995       2.498      2.9942E-03

 HEAD WILL BE SAVED ON UNIT   51 AT END OF TIME STEP   47, STRESS PERIOD    2

 DRAWDOWN WILL BE SAVED ON UNIT   52 AT END OF TIME STEP   47, STRESS PERIOD    2
1
  VOLUMETRIC BUDGET FOR ENTIRE MODEL AT END OF TIME STEP   47, STRESS PERIOD   2
  ------------------------------------------------------------------------------

     CUMULATIVE VOLUMES      L**3       RATES FOR THIS TIME STEP      L**3/T
     ------------------                 ------------------------

           IN:                                      IN:
           ---                                      ---
             STORAGE =           0.0000               STORAGE =           0.0000
       CONSTANT HEAD =           0.0000         CONSTANT HEAD =           0.0000
               WELLS =           0.0000                 WELLS =           0.0000
     HEAD DEP BOUNDS =       46844.6094       HEAD DEP BOUNDS =         750.5601

            TOTAL IN =       46844.6094              TOTAL IN =         750.5601

          OUT:                                     OUT:
          ----                                     ----
             STORAGE =       14986.7969               STORAGE =           2.0913
       CONSTANT HEAD =           0.0000         CONSTANT HEAD =           0.0000
               WELLS =           0.0000                 WELLS =           0.0000
     HEAD DEP BOUNDS =       31858.3477       HEAD DEP BOUNDS =         748.5423

           TOTAL OUT =       46845.1445             TOTAL OUT =         750.6336

            IN - OUT =          -0.5352              IN - OUT =      -7.3547E-02

 PERCENT DISCREPANCY =          -0.00     PERCENT DISCREPANCY =          -0.01






         TIME SUMMARY AT END OF TIME STEP   47 IN STRESS PERIOD    2
                    SECONDS     MINUTES      HOURS       DAYS        YEARS
                    -----------------------------------------------------------
   TIME STEP LENGTH  86400.      1440.0      24.000      1.0000     2.73785E-03
 STRESS PERIOD TIME 4.06080E+06  67680.      1128.0      47.000     0.12868    
         TOTAL TIME 4.14720E+06  69120.      1152.0      48.000     0.13142    
1
 
 SOLVING FOR HEAD 

 OUTPUT CONTROL FOR STRESS PERIOD    2   TIME STEP   48
    SAVE HEAD FOR ALL LAYERS
    SAVE DRAWDOWN FOR ALL LAYERS
    SAVE BUDGET
    PRINT HEAD FOR ALL LAYERS
    PRINT BUDGET
 UBDSV1 SAVING "         STORAGE" ON UNIT  53 AT TIME STEP 48, STRESS PERIOD   2
 UBDSV2 SAVING "   CONSTANT HEAD" ON UNIT  53 AT TIME STEP 48, STRESS PERIOD   2
 UBDSV1 SAVING "FLOW RIGHT FACE " ON UNIT  53 AT TIME STEP 48, STRESS PERIOD   2
 UBDSV1 SAVING "FLOW FRONT FACE " ON UNIT  53 AT TIME STEP 48, STRESS PERIOD   2
 UBDSV1 SAVING "FLOW LOWER FACE " ON UNIT  53 AT TIME STEP 48, STRESS PERIOD   2
1
              HEAD IN LAYER   1 AT END OF TIME STEP  48 IN STRESS PERIOD    2
  ---------------------------------------------------------------------------

            1           2           3           4           5
 ............................................................
   1    9.997       7.496       4.996       2.499      2.9947E-03
   2    9.997       7.496       4.996       2.499      2.9947E-03
   3    9.997       7.496       4.996       2.499      2.9947E-03
   4    9.997       7.496       4.996       2.499      2.9947E-03
   5    9.997       7.496       4.996       2.499      2.9947E-03
1
              HEAD IN LAYER   2 AT END OF TIME STEP  48 IN STRESS PERIOD    2
  ---------------------------------------------------------------------------

            1           2           3           4           5
 ............................................................
   1    9.997       7.496       4.996       2.499      2.9947E-03
   2    9.997       7.496       4.996       2.499      2.9947E-03
   3    9.997       7.496       4.996       2.499      2.9947E-03
   4    9.997       7.496       4.996       2.499      2.9947E-03
   5    9.997       7.496       4.996       2.499      2.9947E-03
1
              HEAD IN LAYER   3 AT END OF TIME STEP  48 IN STRESS PERIOD    2
  ---------------------------------------------------------------------------

            1           2           3           4           5
 ............................................................
   1    9.997       7.496       4.996       2.499      2.9947E-03
   2    9.997       7.496       4.996       2.499      2.9947E-03
   3    9.997       7.496       4.996       2.499      2.9947E-03
   4    9.997       7.496       4.996       2.499      2.9947E-03
   5    9.997       7.496       4.996       2.499      2.9947E-03
1
              HEAD IN LAYER   4 AT END OF TIME STEP  48 IN STRESS PERIOD    2
  ---------------------------------------------------------------------------

            1           2           3           4           5
 ............................................................
   1    9.997       7.496       4.996       2.499      2.9947E-03
   2    9.997       7.496       4.996       2.499      2.9947E-03
   3    9.997       7.496       4.996       2.499      2.9947E-03
   4    9.997       7.496       4.996       2.499      2.9947E-03
   5    9.997       7.496       4.996       2.499      2.9947E-03
1
              HEAD IN LAYER   5 AT END OF TIME STEP  48 IN STRESS PERIOD    2
  ---------------------------------------------------------------------------

            1           2           3           4           5
 ............................................................
   1    9.997       7.496       4.996       2.499      2.9947E-03
   2    9.997       7.496       4.996       2.499      2.9947E-03
   3    9.997       7.496       4.996       2.499      2.9947E-03
   4    9.997       7.496       4.996       2.499      2.9947E-03
   5    9.997       7.496       4.996       2.499      2.9947E-03

 HEAD WILL BE SAVED ON UNIT   51 AT END OF TIME STEP   48, STRESS PERIOD    2

 DRAWDOWN WILL BE SAVED ON UNIT   52 AT END OF TIME STEP   48, STRESS PERIOD    2
1
  VOLUMETRIC BUDGET FOR ENTIRE MODEL AT END OF TIME STEP   48, STRESS PERIOD   2
  ------------------------------------------------------------------------------

     CUMULATIVE VOLUMES      L**3       RATES FOR THIS TIME STEP      L**3/T
     ------------------                 ------------------------

           IN:                                      IN:
           ---                                      ---
             STORAGE =           0.0000               STORAGE =           0.0000
       CONSTANT HEAD =           0.0000         CONSTANT HEAD =           0.0000
               WELLS =           0.0000                 WELLS =           0.0000
     HEAD DEP BOUNDS =       47595.0352       HEAD DEP BOUNDS =         750.4272

            TOTAL IN =       47595.0352              TOTAL IN =         750.4272

          OUT:                                     OUT:
          ----                                     ----
             STORAGE =       14988.6201               STORAGE =           1.8231
       CONSTANT HEAD =           0.0000         CONSTANT HEAD =           0.0000
               WELLS =           0.0000                 WELLS =           0.0000
     HEAD DEP BOUNDS =       32607.0234       HEAD DEP BOUNDS =         748.6757

           TOTAL OUT =       47595.6445             TOTAL OUT =         750.4988

            IN - OUT =          -0.6094              IN - OUT =      -7.1594E-02

 PERCENT DISCREPANCY =          -0.00     PERCENT DISCREPANCY =          -0.01






         TIME SUMMARY AT END OF TIME STEP   48 IN STRESS PERIOD    2
                    SECONDS     MINUTES      HOURS       DAYS        YEARS
                    -----------------------------------------------------------
   TIME STEP LENGTH  86400.      1440.0      24.000      1.0000     2.73785E-03
 STRESS PERIOD TIME 4.14720E+06  69120.      1152.0      48.000     0.13142    
         TOTAL TIME 4.23360E+06  70560.      1176.0      49.000     0.13415    
1
 
 SOLVING FOR HEAD 

 OUTPUT CONTROL FOR STRESS PERIOD    2   TIME STEP   49
    SAVE HEAD FOR ALL LAYERS
    SAVE DRAWDOWN FOR ALL LAYERS
    SAVE BUDGET
    PRINT HEAD FOR ALL LAYERS
    PRINT BUDGET
 UBDSV1 SAVING "         STORAGE" ON UNIT  53 AT TIME STEP 49, STRESS PERIOD   2
 UBDSV2 SAVING "   CONSTANT HEAD" ON UNIT  53 AT TIME STEP 49, STRESS PERIOD   2
 UBDSV1 SAVING "FLOW RIGHT FACE " ON UNIT  53 AT TIME STEP 49, STRESS PERIOD   2
 UBDSV1 SAVING "FLOW FRONT FACE " ON UNIT  53 AT TIME STEP 49, STRESS PERIOD   2
 UBDSV1 SAVING "FLOW LOWER FACE " ON UNIT  53 AT TIME STEP 49, STRESS PERIOD   2
1
              HEAD IN LAYER   1 AT END OF TIME STEP  49 IN STRESS PERIOD    2
  ---------------------------------------------------------------------------

            1           2           3           4           5
 ............................................................
   1    9.997       7.496       4.996       2.499      2.9952E-03
   2    9.997       7.496       4.996       2.499      2.9952E-03
   3    9.997       7.496       4.996       2.499      2.9952E-03
   4    9.997       7.496       4.996       2.499      2.9952E-03
   5    9.997       7.496       4.996       2.499      2.9952E-03
1
              HEAD IN LAYER   2 AT END OF TIME STEP  49 IN STRESS PERIOD    2
  ---------------------------------------------------------------------------

            1           2           3           4           5
 ............................................................
   1    9.997       7.496       4.996       2.499      2.9952E-03
   2    9.997       7.496       4.996       2.499      2.9952E-03
   3    9.997       7.496       4.996       2.499      2.9952E-03
   4    9.997       7.496       4.996       2.499      2.9952E-03
   5    9.997       7.496       4.996       2.499      2.9952E-03
1
              HEAD IN LAYER   3 AT END OF TIME STEP  49 IN STRESS PERIOD    2
  ---------------------------------------------------------------------------

            1           2           3           4           5
 ............................................................
   1    9.997       7.496       4.996       2.499      2.9952E-03
   2    9.997       7.496       4.996       2.499      2.9952E-03
   3    9.997       7.496       4.996       2.499      2.9952E-03
   4    9.997       7.496       4.996       2.499      2.9952E-03
   5    9.997       7.496       4.996       2.499      2.9952E-03
1
              HEAD IN LAYER   4 AT END OF TIME STEP  49 IN STRESS PERIOD    2
  ---------------------------------------------------------------------------

            1           2           3           4           5
 ............................................................
   1    9.997       7.496       4.996       2.499      2.9952E-03
   2    9.997       7.496       4.996       2.499      2.9952E-03
   3    9.997       7.496       4.996       2.499      2.9952E-03
   4    9.997       7.496       4.996       2.499      2.9952E-03
   5    9.997       7.496       4.996       2.499      2.9952E-03
1
              HEAD IN LAYER   5 AT END OF TIME STEP  49 IN STRESS PERIOD    2
  ---------------------------------------------------------------------------

            1           2           3           4           5
 ............................................................
   1    9.997       7.496       4.996       2.499      2.9952E-03
   2    9.997       7.496       4.996       2.499      2.9952E-03
   3    9.997       7.496       4.996       2.499      2.9952E-03
   4    9.997       7.496       4.996       2.499      2.9952E-03
   5    9.997       7.496       4.996       2.499      2.9952E-03

 HEAD WILL BE SAVED ON UNIT   51 AT END OF TIME STEP   49, STRESS PERIOD    2

 DRAWDOWN WILL BE SAVED ON UNIT   52 AT END OF TIME STEP   49, STRESS PERIOD    2
1
  VOLUMETRIC BUDGET FOR ENTIRE MODEL AT END OF TIME STEP   49, STRESS PERIOD   2
  ------------------------------------------------------------------------------

     CUMULATIVE VOLUMES      L**3       RATES FOR THIS TIME STEP      L**3/T
     ------------------                 ------------------------

           IN:                                      IN:
           ---                                      ---
             STORAGE =           0.0000               STORAGE =           0.0000
       CONSTANT HEAD =           0.0000         CONSTANT HEAD =           0.0000
               WELLS =           0.0000                 WELLS =           0.0000
     HEAD DEP BOUNDS =       48345.3477       HEAD DEP BOUNDS =         750.3114

            TOTAL IN =       48345.3477              TOTAL IN =         750.3114

          OUT:                                     OUT:
          ----                                     ----
             STORAGE =       14990.2109               STORAGE =           1.5907
       CONSTANT HEAD =           0.0000         CONSTANT HEAD =           0.0000
               WELLS =           0.0000                 WELLS =           0.0000
     HEAD DEP BOUNDS =       33355.8164       HEAD DEP BOUNDS =         748.7921

           TOTAL OUT =       48346.0273             TOTAL OUT =         750.3828

            IN - OUT =          -0.6797              IN - OUT =      -7.1411E-02

 PERCENT DISCREPANCY =          -0.00     PERCENT DISCREPANCY =          -0.01






         TIME SUMMARY AT END OF TIME STEP   49 IN STRESS PERIOD    2
                    SECONDS     MINUTES      HOURS       DAYS        YEARS
                    -----------------------------------------------------------
   TIME STEP LENGTH  86400.      1440.0      24.000      1.0000     2.73785E-03
 STRESS PERIOD TIME 4.23360E+06  70560.      1176.0      49.000     0.13415    
         TOTAL TIME 4.32000E+06  72000.      1200.0      50.000     0.13689    
1
 
 SOLVING FOR HEAD 

 OUTPUT CONTROL FOR STRESS PERIOD    2   TIME STEP   50
    SAVE HEAD FOR ALL LAYERS
    SAVE DRAWDOWN FOR ALL LAYERS
    SAVE BUDGET
    PRINT HEAD FOR ALL LAYERS
    PRINT BUDGET
 UBDSV1 SAVING "         STORAGE" ON UNIT  53 AT TIME STEP 50, STRESS PERIOD   2
 UBDSV2 SAVING "   CONSTANT HEAD" ON UNIT  53 AT TIME STEP 50, STRESS PERIOD   2
 UBDSV1 SAVING "FLOW RIGHT FACE " ON UNIT  53 AT TIME STEP 50, STRESS PERIOD   2
 UBDSV1 SAVING "FLOW FRONT FACE " ON UNIT  53 AT TIME STEP 50, STRESS PERIOD   2
 UBDSV1 SAVING "FLOW LOWER FACE " ON UNIT  53 AT TIME STEP 50, STRESS PERIOD   2
1
              HEAD IN LAYER   1 AT END OF TIME STEP  50 IN STRESS PERIOD    2
  ---------------------------------------------------------------------------

            1           2           3           4           5
 ............................................................
   1    9.997       7.497       4.997       2.499      2.9956E-03
   2    9.997       7.497       4.997       2.499      2.9956E-03
   3    9.997       7.497       4.997       2.499      2.9956E-03
   4    9.997       7.497       4.997       2.499      2.9956E-03
   5    9.997       7.497       4.997       2.499      2.9956E-03
1
              HEAD IN LAYER   2 AT END OF TIME STEP  50 IN STRESS PERIOD    2
  ---------------------------------------------------------------------------

            1           2           3           4           5
 ............................................................
   1    9.997       7.497       4.997       2.499      2.9956E-03
   2    9.997       7.497       4.997       2.499      2.9956E-03
   3    9.997       7.497       4.997       2.499      2.9956E-03
   4    9.997       7.497       4.997       2.499      2.9956E-03
   5    9.997       7.497       4.997       2.499      2.9956E-03
1
              HEAD IN LAYER   3 AT END OF TIME STEP  50 IN STRESS PERIOD    2
  ---------------------------------------------------------------------------

            1           2           3           4           5
 ............................................................
   1    9.997       7.497       4.997       2.499      2.9956E-03
   2    9.997       7.497       4.997       2.499      2.9956E-03
   3    9.997       7.497       4.997       2.499      2.9956E-03
   4    9.997       7.497       4.997       2.499      2.9956E-03
   5    9.997       7.497       4.997       2.499      2.9956E-03
1
              HEAD IN LAYER   4 AT END OF TIME STEP  50 IN STRESS PERIOD    2
  ---------------------------------------------------------------------------

            1           2           3           4           5
 ............................................................
   1    9.997       7.497       4.997       2.499      2.9956E-03
   2    9.997       7.497       4.997       2.499      2.9956E-03
   3    9.997       7.497       4.997       2.499      2.9956E-03
   4    9.997       7.497       4.997       2.499      2.9956E-03
   5    9.997       7.497       4.997       2.499      2.9956E-03
1
              HEAD IN LAYER   5 AT END OF TIME STEP  50 IN STRESS PERIOD    2
  ---------------------------------------------------------------------------

            1           2           3           4           5
 ............................................................
   1    9.997       7.497       4.997       2.499      2.9956E-03
   2    9.997       7.497       4.997       2.499      2.9956E-03
   3    9.997       7.497       4.997       2.499      2.9956E-03
   4    9.997       7.497       4.997       2.499      2.9956E-03
   5    9.997       7.497       4.997       2.499      2.9956E-03

 HEAD WILL BE SAVED ON UNIT   51 AT END OF TIME STEP   50, STRESS PERIOD    2

 DRAWDOWN WILL BE SAVED ON UNIT   52 AT END OF TIME STEP   50, STRESS PERIOD    2
1
  VOLUMETRIC BUDGET FOR ENTIRE MODEL AT END OF TIME STEP   50, STRESS PERIOD   2
  ------------------------------------------------------------------------------

     CUMULATIVE VOLUMES      L**3       RATES FOR THIS TIME STEP      L**3/T
     ------------------                 ------------------------

           IN:                                      IN:
           ---                                      ---
             STORAGE =           0.0000               STORAGE =           0.0000
       CONSTANT HEAD =           0.0000         CONSTANT HEAD =           0.0000
               WELLS =           0.0000                 WELLS =           0.0000
     HEAD DEP BOUNDS =       49095.5586       HEAD DEP BOUNDS =         750.2103

            TOTAL IN =       49095.5586              TOTAL IN =         750.2103

          OUT:                                     OUT:
          ----                                     ----
             STORAGE =       14991.5996               STORAGE =           1.3887
       CONSTANT HEAD =           0.0000         CONSTANT HEAD =           0.0000
               WELLS =           0.0000                 WELLS =           0.0000
     HEAD DEP BOUNDS =       34104.7109       HEAD DEP BOUNDS =         748.8936

           TOTAL OUT =       49096.3125             TOTAL OUT =         750.2823

            IN - OUT =          -0.7539              IN - OUT =      -7.1960E-02

 PERCENT DISCREPANCY =          -0.00     PERCENT DISCREPANCY =          -0.01






         TIME SUMMARY AT END OF TIME STEP   50 IN STRESS PERIOD    2
                    SECONDS     MINUTES      HOURS       DAYS        YEARS
                    -----------------------------------------------------------
   TIME STEP LENGTH  86400.      1440.0      24.000      1.0000     2.73785E-03
 STRESS PERIOD TIME 4.32000E+06  72000.      1200.0      50.000     0.13689    
         TOTAL TIME 4.40640E+06  73440.      1224.0      51.000     0.13963    
1
 
 SOLVING FOR HEAD 

 OUTPUT CONTROL FOR STRESS PERIOD    2   TIME STEP   51
    SAVE HEAD FOR ALL LAYERS
    SAVE DRAWDOWN FOR ALL LAYERS
    SAVE BUDGET
    PRINT HEAD FOR ALL LAYERS
    PRINT BUDGET
 UBDSV1 SAVING "         STORAGE" ON UNIT  53 AT TIME STEP 51, STRESS PERIOD   2
 UBDSV2 SAVING "   CONSTANT HEAD" ON UNIT  53 AT TIME STEP 51, STRESS PERIOD   2
 UBDSV1 SAVING "FLOW RIGHT FACE " ON UNIT  53 AT TIME STEP 51, STRESS PERIOD   2
 UBDSV1 SAVING "FLOW FRONT FACE " ON UNIT  53 AT TIME STEP 51, STRESS PERIOD   2
 UBDSV1 SAVING "FLOW LOWER FACE " ON UNIT  53 AT TIME STEP 51, STRESS PERIOD   2
1
              HEAD IN LAYER   1 AT END OF TIME STEP  51 IN STRESS PERIOD    2
  ---------------------------------------------------------------------------

            1           2           3           4           5
 ............................................................
   1    9.997       7.497       4.997       2.500      2.9959E-03
   2    9.997       7.497       4.997       2.500      2.9959E-03
   3    9.997       7.497       4.997       2.500      2.9959E-03
   4    9.997       7.497       4.997       2.500      2.9959E-03
   5    9.997       7.497       4.997       2.500      2.9959E-03
1
              HEAD IN LAYER   2 AT END OF TIME STEP  51 IN STRESS PERIOD    2
  ---------------------------------------------------------------------------

            1           2           3           4           5
 ............................................................
   1    9.997       7.497       4.997       2.500      2.9959E-03
   2    9.997       7.497       4.997       2.500      2.9959E-03
   3    9.997       7.497       4.997       2.500      2.9959E-03
   4    9.997       7.497       4.997       2.500      2.9959E-03
   5    9.997       7.497       4.997       2.500      2.9959E-03
1
              HEAD IN LAYER   3 AT END OF TIME STEP  51 IN STRESS PERIOD    2
  ---------------------------------------------------------------------------

            1           2           3           4           5
 ............................................................
   1    9.997       7.497       4.997       2.500      2.9959E-03
   2    9.997       7.497       4.997       2.500      2.9959E-03
   3    9.997       7.497       4.997       2.500      2.9959E-03
   4    9.997       7.497       4.997       2.500      2.9959E-03
   5    9.997       7.497       4.997       2.500      2.9959E-03
1
              HEAD IN LAYER   4 AT END OF TIME STEP  51 IN STRESS PERIOD    2
  ---------------------------------------------------------------------------

            1           2           3           4           5
 ............................................................
   1    9.997       7.497       4.997       2.500      2.9959E-03
   2    9.997       7.497       4.997       2.500      2.9959E-03
   3    9.997       7.497       4.997       2.500      2.9959E-03
   4    9.997       7.497       4.997       2.500      2.9959E-03
   5    9.997       7.497       4.997       2.500      2.9959E-03
1
              HEAD IN LAYER   5 AT END OF TIME STEP  51 IN STRESS PERIOD    2
  ---------------------------------------------------------------------------

            1           2           3           4           5
 ............................................................
   1    9.997       7.497       4.997       2.500      2.9959E-03
   2    9.997       7.497       4.997       2.500      2.9959E-03
   3    9.997       7.497       4.997       2.500      2.9959E-03
   4    9.997       7.497       4.997       2.500      2.9959E-03
   5    9.997       7.497       4.997       2.500      2.9959E-03

 HEAD WILL BE SAVED ON UNIT   51 AT END OF TIME STEP   51, STRESS PERIOD    2

 DRAWDOWN WILL BE SAVED ON UNIT   52 AT END OF TIME STEP   51, STRESS PERIOD    2
1
  VOLUMETRIC BUDGET FOR ENTIRE MODEL AT END OF TIME STEP   51, STRESS PERIOD   2
  ------------------------------------------------------------------------------

     CUMULATIVE VOLUMES      L**3       RATES FOR THIS TIME STEP      L**3/T
     ------------------                 ------------------------

           IN:                                      IN:
           ---                                      ---
             STORAGE =           0.0000               STORAGE =           0.0000
       CONSTANT HEAD =           0.0000         CONSTANT HEAD =           0.0000
               WELLS =           0.0000                 WELLS =           0.0000
     HEAD DEP BOUNDS =       49845.6797       HEAD DEP BOUNDS =         750.1221

            TOTAL IN =       49845.6797              TOTAL IN =         750.1221

          OUT:                                     OUT:
          ----                                     ----
             STORAGE =       14992.8105               STORAGE =           1.2109
       CONSTANT HEAD =           0.0000         CONSTANT HEAD =           0.0000
               WELLS =           0.0000                 WELLS =           0.0000
     HEAD DEP BOUNDS =       34853.6914       HEAD DEP BOUNDS =         748.9822

           TOTAL OUT =       49846.5000             TOTAL OUT =         750.1931

            IN - OUT =          -0.8203              IN - OUT =      -7.0984E-02

 PERCENT DISCREPANCY =          -0.00     PERCENT DISCREPANCY =          -0.01






         TIME SUMMARY AT END OF TIME STEP   51 IN STRESS PERIOD    2
                    SECONDS     MINUTES      HOURS       DAYS        YEARS
                    -----------------------------------------------------------
   TIME STEP LENGTH  86400.      1440.0      24.000      1.0000     2.73785E-03
 STRESS PERIOD TIME 4.40640E+06  73440.      1224.0      51.000     0.13963    
         TOTAL TIME 4.49280E+06  74880.      1248.0      52.000     0.14237    
1
 
 SOLVING FOR HEAD 

 OUTPUT CONTROL FOR STRESS PERIOD    2   TIME STEP   52
    SAVE HEAD FOR ALL LAYERS
    SAVE DRAWDOWN FOR ALL LAYERS
    SAVE BUDGET
    PRINT HEAD FOR ALL LAYERS
    PRINT BUDGET
 UBDSV1 SAVING "         STORAGE" ON UNIT  53 AT TIME STEP 52, STRESS PERIOD   2
 UBDSV2 SAVING "   CONSTANT HEAD" ON UNIT  53 AT TIME STEP 52, STRESS PERIOD   2
 UBDSV1 SAVING "FLOW RIGHT FACE " ON UNIT  53 AT TIME STEP 52, STRESS PERIOD   2
 UBDSV1 SAVING "FLOW FRONT FACE " ON UNIT  53 AT TIME STEP 52, STRESS PERIOD   2
 UBDSV1 SAVING "FLOW LOWER FACE " ON UNIT  53 AT TIME STEP 52, STRESS PERIOD   2
1
              HEAD IN LAYER   1 AT END OF TIME STEP  52 IN STRESS PERIOD    2
  ---------------------------------------------------------------------------

            1           2           3           4           5
 ............................................................
   1    9.997       7.497       4.998       2.500      2.9962E-03
   2    9.997       7.497       4.998       2.500      2.9962E-03
   3    9.997       7.497       4.998       2.500      2.9962E-03
   4    9.997       7.497       4.998       2.500      2.9962E-03
   5    9.997       7.497       4.998       2.500      2.9962E-03
1
              HEAD IN LAYER   2 AT END OF TIME STEP  52 IN STRESS PERIOD    2
  ---------------------------------------------------------------------------

            1           2           3           4           5
 ............................................................
   1    9.997       7.497       4.998       2.500      2.9962E-03
   2    9.997       7.497       4.998       2.500      2.9962E-03
   3    9.997       7.497       4.998       2.500      2.9962E-03
   4    9.997       7.497       4.998       2.500      2.9962E-03
   5    9.997       7.497       4.998       2.500      2.9962E-03
1
              HEAD IN LAYER   3 AT END OF TIME STEP  52 IN STRESS PERIOD    2
  ---------------------------------------------------------------------------

            1           2           3           4           5
 ............................................................
   1    9.997       7.497       4.998       2.500      2.9962E-03
   2    9.997       7.497       4.998       2.500      2.9962E-03
   3    9.997       7.497       4.998       2.500      2.9962E-03
   4    9.997       7.497       4.998       2.500      2.9962E-03
   5    9.997       7.497       4.998       2.500      2.9962E-03
1
              HEAD IN LAYER   4 AT END OF TIME STEP  52 IN STRESS PERIOD    2
  ---------------------------------------------------------------------------

            1           2           3           4           5
 ............................................................
   1    9.997       7.497       4.998       2.500      2.9962E-03
   2    9.997       7.497       4.998       2.500      2.9962E-03
   3    9.997       7.497       4.998       2.500      2.9962E-03
   4    9.997       7.497       4.998       2.500      2.9962E-03
   5    9.997       7.497       4.998       2.500      2.9962E-03
1
              HEAD IN LAYER   5 AT END OF TIME STEP  52 IN STRESS PERIOD    2
  ---------------------------------------------------------------------------

            1           2           3           4           5
 ............................................................
   1    9.997       7.497       4.998       2.500      2.9962E-03
   2    9.997       7.497       4.998       2.500      2.9962E-03
   3    9.997       7.497       4.998       2.500      2.9962E-03
   4    9.997       7.497       4.998       2.500      2.9962E-03
   5    9.997       7.497       4.998       2.500      2.9962E-03

 HEAD WILL BE SAVED ON UNIT   51 AT END OF TIME STEP   52, STRESS PERIOD    2

 DRAWDOWN WILL BE SAVED ON UNIT   52 AT END OF TIME STEP   52, STRESS PERIOD    2
1
  VOLUMETRIC BUDGET FOR ENTIRE MODEL AT END OF TIME STEP   52, STRESS PERIOD   2
  ------------------------------------------------------------------------------

     CUMULATIVE VOLUMES      L**3       RATES FOR THIS TIME STEP      L**3/T
     ------------------                 ------------------------

           IN:                                      IN:
           ---                                      ---
             STORAGE =           0.0000               STORAGE =           0.0000
       CONSTANT HEAD =           0.0000         CONSTANT HEAD =           0.0000
               WELLS =           0.0000                 WELLS =           0.0000
     HEAD DEP BOUNDS =       50595.7266       HEAD DEP BOUNDS =         750.0452

            TOTAL IN =       50595.7266              TOTAL IN =         750.0452

          OUT:                                     OUT:
          ----                                     ----
             STORAGE =       14993.8662               STORAGE =           1.0558
       CONSTANT HEAD =           0.0000         CONSTANT HEAD =           0.0000
               WELLS =           0.0000                 WELLS =           0.0000
     HEAD DEP BOUNDS =       35602.7500       HEAD DEP BOUNDS =         749.0595

           TOTAL OUT =       50596.6172             TOTAL OUT =         750.1153

            IN - OUT =          -0.8906              IN - OUT =      -7.0129E-02

 PERCENT DISCREPANCY =          -0.00     PERCENT DISCREPANCY =          -0.01






         TIME SUMMARY AT END OF TIME STEP   52 IN STRESS PERIOD    2
                    SECONDS     MINUTES      HOURS       DAYS        YEARS
                    -----------------------------------------------------------
   TIME STEP LENGTH  86400.      1440.0      24.000      1.0000     2.73785E-03
 STRESS PERIOD TIME 4.49280E+06  74880.      1248.0      52.000     0.14237    
         TOTAL TIME 4.57920E+06  76320.      1272.0      53.000     0.14511    
1
 
 SOLVING FOR HEAD 

 OUTPUT CONTROL FOR STRESS PERIOD    2   TIME STEP   53
    SAVE HEAD FOR ALL LAYERS
    SAVE DRAWDOWN FOR ALL LAYERS
    SAVE BUDGET
    PRINT HEAD FOR ALL LAYERS
    PRINT BUDGET
 UBDSV1 SAVING "         STORAGE" ON UNIT  53 AT TIME STEP 53, STRESS PERIOD   2
 UBDSV2 SAVING "   CONSTANT HEAD" ON UNIT  53 AT TIME STEP 53, STRESS PERIOD   2
 UBDSV1 SAVING "FLOW RIGHT FACE " ON UNIT  53 AT TIME STEP 53, STRESS PERIOD   2
 UBDSV1 SAVING "FLOW FRONT FACE " ON UNIT  53 AT TIME STEP 53, STRESS PERIOD   2
 UBDSV1 SAVING "FLOW LOWER FACE " ON UNIT  53 AT TIME STEP 53, STRESS PERIOD   2
1
              HEAD IN LAYER   1 AT END OF TIME STEP  53 IN STRESS PERIOD    2
  ---------------------------------------------------------------------------

            1           2           3           4           5
 ............................................................
   1    9.998       7.497       4.998       2.500      2.9965E-03
   2    9.998       7.497       4.998       2.500      2.9965E-03
   3    9.998       7.497       4.998       2.500      2.9965E-03
   4    9.998       7.497       4.998       2.500      2.9965E-03
   5    9.998       7.497       4.998       2.500      2.9965E-03
1
              HEAD IN LAYER   2 AT END OF TIME STEP  53 IN STRESS PERIOD    2
  ---------------------------------------------------------------------------

            1           2           3           4           5
 ............................................................
   1    9.998       7.497       4.998       2.500      2.9965E-03
   2    9.998       7.497       4.998       2.500      2.9965E-03
   3    9.998       7.497       4.998       2.500      2.9965E-03
   4    9.998       7.497       4.998       2.500      2.9965E-03
   5    9.998       7.497       4.998       2.500      2.9965E-03
1
              HEAD IN LAYER   3 AT END OF TIME STEP  53 IN STRESS PERIOD    2
  ---------------------------------------------------------------------------

            1           2           3           4           5
 ............................................................
   1    9.998       7.497       4.998       2.500      2.9965E-03
   2    9.998       7.497       4.998       2.500      2.9965E-03
   3    9.998       7.497       4.998       2.500      2.9965E-03
   4    9.998       7.497       4.998       2.500      2.9965E-03
   5    9.998       7.497       4.998       2.500      2.9965E-03
1
              HEAD IN LAYER   4 AT END OF TIME STEP  53 IN STRESS PERIOD    2
  ---------------------------------------------------------------------------

            1           2           3           4           5
 ............................................................
   1    9.998       7.497       4.998       2.500      2.9965E-03
   2    9.998       7.497       4.998       2.500      2.9965E-03
   3    9.998       7.497       4.998       2.500      2.9965E-03
   4    9.998       7.497       4.998       2.500      2.9965E-03
   5    9.998       7.497       4.998       2.500      2.9965E-03
1
              HEAD IN LAYER   5 AT END OF TIME STEP  53 IN STRESS PERIOD    2
  ---------------------------------------------------------------------------

            1           2           3           4           5
 ............................................................
   1    9.998       7.497       4.998       2.500      2.9965E-03
   2    9.998       7.497       4.998       2.500      2.9965E-03
   3    9.998       7.497       4.998       2.500      2.9965E-03
   4    9.998       7.497       4.998       2.500      2.9965E-03
   5    9.998       7.497       4.998       2.500      2.9965E-03

 HEAD WILL BE SAVED ON UNIT   51 AT END OF TIME STEP   53, STRESS PERIOD    2

 DRAWDOWN WILL BE SAVED ON UNIT   52 AT END OF TIME STEP   53, STRESS PERIOD    2
1
  VOLUMETRIC BUDGET FOR ENTIRE MODEL AT END OF TIME STEP   53, STRESS PERIOD   2
  ------------------------------------------------------------------------------

     CUMULATIVE VOLUMES      L**3       RATES FOR THIS TIME STEP      L**3/T
     ------------------                 ------------------------

           IN:                                      IN:
           ---                                      ---
             STORAGE =           0.0000               STORAGE =           0.0000
       CONSTANT HEAD =           0.0000         CONSTANT HEAD =           0.0000
               WELLS =           0.0000                 WELLS =           0.0000
     HEAD DEP BOUNDS =       51345.7031       HEAD DEP BOUNDS =         749.9781

            TOTAL IN =       51345.7031              TOTAL IN =         749.9781

          OUT:                                     OUT:
          ----                                     ----
             STORAGE =       14994.7891               STORAGE =           0.9224
       CONSTANT HEAD =           0.0000         CONSTANT HEAD =           0.0000
               WELLS =           0.0000                 WELLS =           0.0000
     HEAD DEP BOUNDS =       36351.8750       HEAD DEP BOUNDS =         749.1269

           TOTAL OUT =       51346.6641             TOTAL OUT =         750.0493

            IN - OUT =          -0.9609              IN - OUT =      -7.1228E-02

 PERCENT DISCREPANCY =          -0.00     PERCENT DISCREPANCY =          -0.01






         TIME SUMMARY AT END OF TIME STEP   53 IN STRESS PERIOD    2
                    SECONDS     MINUTES      HOURS       DAYS        YEARS
                    -----------------------------------------------------------
   TIME STEP LENGTH  86400.      1440.0      24.000      1.0000     2.73785E-03
 STRESS PERIOD TIME 4.57920E+06  76320.      1272.0      53.000     0.14511    
         TOTAL TIME 4.66560E+06  77760.      1296.0      54.000     0.14784    
1
 
 SOLVING FOR HEAD 

 OUTPUT CONTROL FOR STRESS PERIOD    2   TIME STEP   54
    SAVE HEAD FOR ALL LAYERS
    SAVE DRAWDOWN FOR ALL LAYERS
    SAVE BUDGET
    PRINT HEAD FOR ALL LAYERS
    PRINT BUDGET
 UBDSV1 SAVING "         STORAGE" ON UNIT  53 AT TIME STEP 54, STRESS PERIOD   2
 UBDSV2 SAVING "   CONSTANT HEAD" ON UNIT  53 AT TIME STEP 54, STRESS PERIOD   2
 UBDSV1 SAVING "FLOW RIGHT FACE " ON UNIT  53 AT TIME STEP 54, STRESS PERIOD   2
 UBDSV1 SAVING "FLOW FRONT FACE " ON UNIT  53 AT TIME STEP 54, STRESS PERIOD   2
 UBDSV1 SAVING "FLOW LOWER FACE " ON UNIT  53 AT TIME STEP 54, STRESS PERIOD   2
1
              HEAD IN LAYER   1 AT END OF TIME STEP  54 IN STRESS PERIOD    2
  ---------------------------------------------------------------------------

            1           2           3           4           5
 ............................................................
   1    9.998       7.498       4.998       2.500      2.9967E-03
   2    9.998       7.498       4.998       2.500      2.9967E-03
   3    9.998       7.498       4.998       2.500      2.9967E-03
   4    9.998       7.498       4.998       2.500      2.9967E-03
   5    9.998       7.498       4.998       2.500      2.9967E-03
1
              HEAD IN LAYER   2 AT END OF TIME STEP  54 IN STRESS PERIOD    2
  ---------------------------------------------------------------------------

            1           2           3           4           5
 ............................................................
   1    9.998       7.498       4.998       2.500      2.9967E-03
   2    9.998       7.498       4.998       2.500      2.9967E-03
   3    9.998       7.498       4.998       2.500      2.9967E-03
   4    9.998       7.498       4.998       2.500      2.9967E-03
   5    9.998       7.498       4.998       2.500      2.9967E-03
1
              HEAD IN LAYER   3 AT END OF TIME STEP  54 IN STRESS PERIOD    2
  ---------------------------------------------------------------------------

            1           2           3           4           5
 ............................................................
   1    9.998       7.498       4.998       2.500      2.9967E-03
   2    9.998       7.498       4.998       2.500      2.9967E-03
   3    9.998       7.498       4.998       2.500      2.9967E-03
   4    9.998       7.498       4.998       2.500      2.9967E-03
   5    9.998       7.498       4.998       2.500      2.9967E-03
1
              HEAD IN LAYER   4 AT END OF TIME STEP  54 IN STRESS PERIOD    2
  ---------------------------------------------------------------------------

            1           2           3           4           5
 ............................................................
   1    9.998       7.498       4.998       2.500      2.9967E-03
   2    9.998       7.498       4.998       2.500      2.9967E-03
   3    9.998       7.498       4.998       2.500      2.9967E-03
   4    9.998       7.498       4.998       2.500      2.9967E-03
   5    9.998       7.498       4.998       2.500      2.9967E-03
1
              HEAD IN LAYER   5 AT END OF TIME STEP  54 IN STRESS PERIOD    2
  ---------------------------------------------------------------------------

            1           2           3           4           5
 ............................................................
   1    9.998       7.498       4.998       2.500      2.9967E-03
   2    9.998       7.498       4.998       2.500      2.9967E-03
   3    9.998       7.498       4.998       2.500      2.9967E-03
   4    9.998       7.498       4.998       2.500      2.9967E-03
   5    9.998       7.498       4.998       2.500      2.9967E-03

 HEAD WILL BE SAVED ON UNIT   51 AT END OF TIME STEP   54, STRESS PERIOD    2

 DRAWDOWN WILL BE SAVED ON UNIT   52 AT END OF TIME STEP   54, STRESS PERIOD    2
1
  VOLUMETRIC BUDGET FOR ENTIRE MODEL AT END OF TIME STEP   54, STRESS PERIOD   2
  ------------------------------------------------------------------------------

     CUMULATIVE VOLUMES      L**3       RATES FOR THIS TIME STEP      L**3/T
     ------------------                 ------------------------

           IN:                                      IN:
           ---                                      ---
             STORAGE =           0.0000               STORAGE =           0.0000
       CONSTANT HEAD =           0.0000         CONSTANT HEAD =           0.0000
               WELLS =           0.0000                 WELLS =           0.0000
     HEAD DEP BOUNDS =       52095.6211       HEAD DEP BOUNDS =         749.9195

            TOTAL IN =       52095.6211              TOTAL IN =         749.9195

          OUT:                                     OUT:
          ----                                     ----
             STORAGE =       14995.5928               STORAGE =           0.8039
       CONSTANT HEAD =           0.0000         CONSTANT HEAD =           0.0000
               WELLS =           0.0000                 WELLS =           0.0000
     HEAD DEP BOUNDS =       37101.0625       HEAD DEP BOUNDS =         749.1857

           TOTAL OUT =       52096.6562             TOTAL OUT =         749.9897

            IN - OUT =          -1.0352              IN - OUT =      -7.0190E-02

 PERCENT DISCREPANCY =          -0.00     PERCENT DISCREPANCY =          -0.01






         TIME SUMMARY AT END OF TIME STEP   54 IN STRESS PERIOD    2
                    SECONDS     MINUTES      HOURS       DAYS        YEARS
                    -----------------------------------------------------------
   TIME STEP LENGTH  86400.      1440.0      24.000      1.0000     2.73785E-03
 STRESS PERIOD TIME 4.66560E+06  77760.      1296.0      54.000     0.14784    
         TOTAL TIME 4.75200E+06  79200.      1320.0      55.000     0.15058    
1
 
 SOLVING FOR HEAD 

 OUTPUT CONTROL FOR STRESS PERIOD    2   TIME STEP   55
    SAVE HEAD FOR ALL LAYERS
    SAVE DRAWDOWN FOR ALL LAYERS
    SAVE BUDGET
    PRINT HEAD FOR ALL LAYERS
    PRINT BUDGET
 UBDSV1 SAVING "         STORAGE" ON UNIT  53 AT TIME STEP 55, STRESS PERIOD   2
 UBDSV2 SAVING "   CONSTANT HEAD" ON UNIT  53 AT TIME STEP 55, STRESS PERIOD   2
 UBDSV1 SAVING "FLOW RIGHT FACE " ON UNIT  53 AT TIME STEP 55, STRESS PERIOD   2
 UBDSV1 SAVING "FLOW FRONT FACE " ON UNIT  53 AT TIME STEP 55, STRESS PERIOD   2
 UBDSV1 SAVING "FLOW LOWER FACE " ON UNIT  53 AT TIME STEP 55, STRESS PERIOD   2
1
              HEAD IN LAYER   1 AT END OF TIME STEP  55 IN STRESS PERIOD    2
  ---------------------------------------------------------------------------

            1           2           3           4           5
 ............................................................
   1    9.998       7.498       4.999       2.500      2.9969E-03
   2    9.998       7.498       4.999       2.500      2.9969E-03
   3    9.998       7.498       4.999       2.500      2.9969E-03
   4    9.998       7.498       4.999       2.500      2.9969E-03
   5    9.998       7.498       4.999       2.500      2.9969E-03
1
              HEAD IN LAYER   2 AT END OF TIME STEP  55 IN STRESS PERIOD    2
  ---------------------------------------------------------------------------

            1           2           3           4           5
 ............................................................
   1    9.998       7.498       4.999       2.500      2.9969E-03
   2    9.998       7.498       4.999       2.500      2.9969E-03
   3    9.998       7.498       4.999       2.500      2.9969E-03
   4    9.998       7.498       4.999       2.500      2.9969E-03
   5    9.998       7.498       4.999       2.500      2.9969E-03
1
              HEAD IN LAYER   3 AT END OF TIME STEP  55 IN STRESS PERIOD    2
  ---------------------------------------------------------------------------

            1           2           3           4           5
 ............................................................
   1    9.998       7.498       4.999       2.500      2.9969E-03
   2    9.998       7.498       4.999       2.500      2.9969E-03
   3    9.998       7.498       4.999       2.500      2.9969E-03
   4    9.998       7.498       4.999       2.500      2.9969E-03
   5    9.998       7.498       4.999       2.500      2.9969E-03
1
              HEAD IN LAYER   4 AT END OF TIME STEP  55 IN STRESS PERIOD    2
  ---------------------------------------------------------------------------

            1           2           3           4           5
 ............................................................
   1    9.998       7.498       4.999       2.500      2.9969E-03
   2    9.998       7.498       4.999       2.500      2.9969E-03
   3    9.998       7.498       4.999       2.500      2.9969E-03
   4    9.998       7.498       4.999       2.500      2.9969E-03
   5    9.998       7.498       4.999       2.500      2.9969E-03
1
              HEAD IN LAYER   5 AT END OF TIME STEP  55 IN STRESS PERIOD    2
  ---------------------------------------------------------------------------

            1           2           3           4           5
 ............................................................
   1    9.998       7.498       4.999       2.500      2.9969E-03
   2    9.998       7.498       4.999       2.500      2.9969E-03
   3    9.998       7.498       4.999       2.500      2.9969E-03
   4    9.998       7.498       4.999       2.500      2.9969E-03
   5    9.998       7.498       4.999       2.500      2.9969E-03

 HEAD WILL BE SAVED ON UNIT   51 AT END OF TIME STEP   55, STRESS PERIOD    2

 DRAWDOWN WILL BE SAVED ON UNIT   52 AT END OF TIME STEP   55, STRESS PERIOD    2
1
  VOLUMETRIC BUDGET FOR ENTIRE MODEL AT END OF TIME STEP   55, STRESS PERIOD   2
  ------------------------------------------------------------------------------

     CUMULATIVE VOLUMES      L**3       RATES FOR THIS TIME STEP      L**3/T
     ------------------                 ------------------------

           IN:                                      IN:
           ---                                      ---
             STORAGE =           0.0000               STORAGE =           0.0000
       CONSTANT HEAD =           0.0000         CONSTANT HEAD =           0.0000
               WELLS =           0.0000                 WELLS =           0.0000
     HEAD DEP BOUNDS =       52845.4883       HEAD DEP BOUNDS =         749.8685

            TOTAL IN =       52845.4883              TOTAL IN =         749.8685

          OUT:                                     OUT:
          ----                                     ----
             STORAGE =       14996.2939               STORAGE =           0.7012
       CONSTANT HEAD =           0.0000         CONSTANT HEAD =           0.0000
               WELLS =           0.0000                 WELLS =           0.0000
     HEAD DEP BOUNDS =       37850.3008       HEAD DEP BOUNDS =         749.2371

           TOTAL OUT =       52846.5938             TOTAL OUT =         749.9382

            IN - OUT =          -1.1055              IN - OUT =      -6.9763E-02

 PERCENT DISCREPANCY =          -0.00     PERCENT DISCREPANCY =          -0.01






         TIME SUMMARY AT END OF TIME STEP   55 IN STRESS PERIOD    2
                    SECONDS     MINUTES      HOURS       DAYS        YEARS
                    -----------------------------------------------------------
   TIME STEP LENGTH  86400.      1440.0      24.000      1.0000     2.73785E-03
 STRESS PERIOD TIME 4.75200E+06  79200.      1320.0      55.000     0.15058    
         TOTAL TIME 4.83840E+06  80640.      1344.0      56.000     0.15332    
1
 
 SOLVING FOR HEAD 

 OUTPUT CONTROL FOR STRESS PERIOD    2   TIME STEP   56
    SAVE HEAD FOR ALL LAYERS
    SAVE DRAWDOWN FOR ALL LAYERS
    SAVE BUDGET
    PRINT HEAD FOR ALL LAYERS
    PRINT BUDGET
 UBDSV1 SAVING "         STORAGE" ON UNIT  53 AT TIME STEP 56, STRESS PERIOD   2
 UBDSV2 SAVING "   CONSTANT HEAD" ON UNIT  53 AT TIME STEP 56, STRESS PERIOD   2
 UBDSV1 SAVING "FLOW RIGHT FACE " ON UNIT  53 AT TIME STEP 56, STRESS PERIOD   2
 UBDSV1 SAVING "FLOW FRONT FACE " ON UNIT  53 AT TIME STEP 56, STRESS PERIOD   2
 UBDSV1 SAVING "FLOW LOWER FACE " ON UNIT  53 AT TIME STEP 56, STRESS PERIOD   2
1
              HEAD IN LAYER   1 AT END OF TIME STEP  56 IN STRESS PERIOD    2
  ---------------------------------------------------------------------------

            1           2           3           4           5
 ............................................................
   1    9.998       7.498       4.999       2.501      2.9971E-03
   2    9.998       7.498       4.999       2.501      2.9971E-03
   3    9.998       7.498       4.999       2.501      2.9971E-03
   4    9.998       7.498       4.999       2.501      2.9971E-03
   5    9.998       7.498       4.999       2.501      2.9971E-03
1
              HEAD IN LAYER   2 AT END OF TIME STEP  56 IN STRESS PERIOD    2
  ---------------------------------------------------------------------------

            1           2           3           4           5
 ............................................................
   1    9.998       7.498       4.999       2.501      2.9971E-03
   2    9.998       7.498       4.999       2.501      2.9971E-03
   3    9.998       7.498       4.999       2.501      2.9971E-03
   4    9.998       7.498       4.999       2.501      2.9971E-03
   5    9.998       7.498       4.999       2.501      2.9971E-03
1
              HEAD IN LAYER   3 AT END OF TIME STEP  56 IN STRESS PERIOD    2
  ---------------------------------------------------------------------------

            1           2           3           4           5
 ............................................................
   1    9.998       7.498       4.999       2.501      2.9971E-03
   2    9.998       7.498       4.999       2.501      2.9971E-03
   3    9.998       7.498       4.999       2.501      2.9971E-03
   4    9.998       7.498       4.999       2.501      2.9971E-03
   5    9.998       7.498       4.999       2.501      2.9971E-03
1
              HEAD IN LAYER   4 AT END OF TIME STEP  56 IN STRESS PERIOD    2
  ---------------------------------------------------------------------------

            1           2           3           4           5
 ............................................................
   1    9.998       7.498       4.999       2.501      2.9971E-03
   2    9.998       7.498       4.999       2.501      2.9971E-03
   3    9.998       7.498       4.999       2.501      2.9971E-03
   4    9.998       7.498       4.999       2.501      2.9971E-03
   5    9.998       7.498       4.999       2.501      2.9971E-03
1
              HEAD IN LAYER   5 AT END OF TIME STEP  56 IN STRESS PERIOD    2
  ---------------------------------------------------------------------------

            1           2           3           4           5
 ............................................................
   1    9.998       7.498       4.999       2.501      2.9971E-03
   2    9.998       7.498       4.999       2.501      2.9971E-03
   3    9.998       7.498       4.999       2.501      2.9971E-03
   4    9.998       7.498       4.999       2.501      2.9971E-03
   5    9.998       7.498       4.999       2.501      2.9971E-03

 HEAD WILL BE SAVED ON UNIT   51 AT END OF TIME STEP   56, STRESS PERIOD    2

 DRAWDOWN WILL BE SAVED ON UNIT   52 AT END OF TIME STEP   56, STRESS PERIOD    2
1
  VOLUMETRIC BUDGET FOR ENTIRE MODEL AT END OF TIME STEP   56, STRESS PERIOD   2
  ------------------------------------------------------------------------------

     CUMULATIVE VOLUMES      L**3       RATES FOR THIS TIME STEP      L**3/T
     ------------------                 ------------------------

           IN:                                      IN:
           ---                                      ---
             STORAGE =           0.0000               STORAGE =           0.0000
       CONSTANT HEAD =           0.0000         CONSTANT HEAD =           0.0000
               WELLS =           0.0000                 WELLS =           0.0000
     HEAD DEP BOUNDS =       53595.3125       HEAD DEP BOUNDS =         749.8239

            TOTAL IN =       53595.3125              TOTAL IN =         749.8239

          OUT:                                     OUT:
          ----                                     ----
             STORAGE =       14996.9062               STORAGE =           0.6119
       CONSTANT HEAD =           0.0000         CONSTANT HEAD =           0.0000
               WELLS =           0.0000                 WELLS =           0.0000
     HEAD DEP BOUNDS =       38599.5820       HEAD DEP BOUNDS =         749.2818

           TOTAL OUT =       53596.4883             TOTAL OUT =         749.8937

            IN - OUT =          -1.1758              IN - OUT =      -6.9763E-02

 PERCENT DISCREPANCY =          -0.00     PERCENT DISCREPANCY =          -0.01






         TIME SUMMARY AT END OF TIME STEP   56 IN STRESS PERIOD    2
                    SECONDS     MINUTES      HOURS       DAYS        YEARS
                    -----------------------------------------------------------
   TIME STEP LENGTH  86400.      1440.0      24.000      1.0000     2.73785E-03
 STRESS PERIOD TIME 4.83840E+06  80640.      1344.0      56.000     0.15332    
         TOTAL TIME 4.92480E+06  82080.      1368.0      57.000     0.15606    
1
 
 SOLVING FOR HEAD 

 OUTPUT CONTROL FOR STRESS PERIOD    2   TIME STEP   57
    SAVE HEAD FOR ALL LAYERS
    SAVE DRAWDOWN FOR ALL LAYERS
    SAVE BUDGET
    PRINT HEAD FOR ALL LAYERS
    PRINT BUDGET
 UBDSV1 SAVING "         STORAGE" ON UNIT  53 AT TIME STEP 57, STRESS PERIOD   2
 UBDSV2 SAVING "   CONSTANT HEAD" ON UNIT  53 AT TIME STEP 57, STRESS PERIOD   2
 UBDSV1 SAVING "FLOW RIGHT FACE " ON UNIT  53 AT TIME STEP 57, STRESS PERIOD   2
 UBDSV1 SAVING "FLOW FRONT FACE " ON UNIT  53 AT TIME STEP 57, STRESS PERIOD   2
 UBDSV1 SAVING "FLOW LOWER FACE " ON UNIT  53 AT TIME STEP 57, STRESS PERIOD   2
1
              HEAD IN LAYER   1 AT END OF TIME STEP  57 IN STRESS PERIOD    2
  ---------------------------------------------------------------------------

            1           2           3           4           5
 ............................................................
   1    9.998       7.498       4.999       2.501      2.9973E-03
   2    9.998       7.498       4.999       2.501      2.9973E-03
   3    9.998       7.498       4.999       2.501      2.9973E-03
   4    9.998       7.498       4.999       2.501      2.9973E-03
   5    9.998       7.498       4.999       2.501      2.9973E-03
1
              HEAD IN LAYER   2 AT END OF TIME STEP  57 IN STRESS PERIOD    2
  ---------------------------------------------------------------------------

            1           2           3           4           5
 ............................................................
   1    9.998       7.498       4.999       2.501      2.9973E-03
   2    9.998       7.498       4.999       2.501      2.9973E-03
   3    9.998       7.498       4.999       2.501      2.9973E-03
   4    9.998       7.498       4.999       2.501      2.9973E-03
   5    9.998       7.498       4.999       2.501      2.9973E-03
1
              HEAD IN LAYER   3 AT END OF TIME STEP  57 IN STRESS PERIOD    2
  ---------------------------------------------------------------------------

            1           2           3           4           5
 ............................................................
   1    9.998       7.498       4.999       2.501      2.9973E-03
   2    9.998       7.498       4.999       2.501      2.9973E-03
   3    9.998       7.498       4.999       2.501      2.9973E-03
   4    9.998       7.498       4.999       2.501      2.9973E-03
   5    9.998       7.498       4.999       2.501      2.9973E-03
1
              HEAD IN LAYER   4 AT END OF TIME STEP  57 IN STRESS PERIOD    2
  ---------------------------------------------------------------------------

            1           2           3           4           5
 ............................................................
   1    9.998       7.498       4.999       2.501      2.9973E-03
   2    9.998       7.498       4.999       2.501      2.9973E-03
   3    9.998       7.498       4.999       2.501      2.9973E-03
   4    9.998       7.498       4.999       2.501      2.9973E-03
   5    9.998       7.498       4.999       2.501      2.9973E-03
1
              HEAD IN LAYER   5 AT END OF TIME STEP  57 IN STRESS PERIOD    2
  ---------------------------------------------------------------------------

            1           2           3           4           5
 ............................................................
   1    9.998       7.498       4.999       2.501      2.9973E-03
   2    9.998       7.498       4.999       2.501      2.9973E-03
   3    9.998       7.498       4.999       2.501      2.9973E-03
   4    9.998       7.498       4.999       2.501      2.9973E-03
   5    9.998       7.498       4.999       2.501      2.9973E-03

 HEAD WILL BE SAVED ON UNIT   51 AT END OF TIME STEP   57, STRESS PERIOD    2

 DRAWDOWN WILL BE SAVED ON UNIT   52 AT END OF TIME STEP   57, STRESS PERIOD    2
1
  VOLUMETRIC BUDGET FOR ENTIRE MODEL AT END OF TIME STEP   57, STRESS PERIOD   2
  ------------------------------------------------------------------------------

     CUMULATIVE VOLUMES      L**3       RATES FOR THIS TIME STEP      L**3/T
     ------------------                 ------------------------

           IN:                                      IN:
           ---                                      ---
             STORAGE =           0.0000               STORAGE =           0.0000
       CONSTANT HEAD =           0.0000         CONSTANT HEAD =           0.0000
               WELLS =           0.0000                 WELLS =           0.0000
     HEAD DEP BOUNDS =       54345.0977       HEAD DEP BOUNDS =         749.7850

            TOTAL IN =       54345.0977              TOTAL IN =         749.7850

          OUT:                                     OUT:
          ----                                     ----
             STORAGE =       14997.4395               STORAGE =           0.5335
       CONSTANT HEAD =           0.0000         CONSTANT HEAD =           0.0000
               WELLS =           0.0000                 WELLS =           0.0000
     HEAD DEP BOUNDS =       39348.9023       HEAD DEP BOUNDS =         749.3209

           TOTAL OUT =       54346.3438             TOTAL OUT =         749.8544

            IN - OUT =          -1.2461              IN - OUT =      -6.9336E-02

 PERCENT DISCREPANCY =          -0.00     PERCENT DISCREPANCY =          -0.01






         TIME SUMMARY AT END OF TIME STEP   57 IN STRESS PERIOD    2
                    SECONDS     MINUTES      HOURS       DAYS        YEARS
                    -----------------------------------------------------------
   TIME STEP LENGTH  86400.      1440.0      24.000      1.0000     2.73785E-03
 STRESS PERIOD TIME 4.92480E+06  82080.      1368.0      57.000     0.15606    
         TOTAL TIME 5.01120E+06  83520.      1392.0      58.000     0.15880    
1
 
 SOLVING FOR HEAD 

 OUTPUT CONTROL FOR STRESS PERIOD    2   TIME STEP   58
    SAVE HEAD FOR ALL LAYERS
    SAVE DRAWDOWN FOR ALL LAYERS
    SAVE BUDGET
    PRINT HEAD FOR ALL LAYERS
    PRINT BUDGET
 UBDSV1 SAVING "         STORAGE" ON UNIT  53 AT TIME STEP 58, STRESS PERIOD   2
 UBDSV2 SAVING "   CONSTANT HEAD" ON UNIT  53 AT TIME STEP 58, STRESS PERIOD   2
 UBDSV1 SAVING "FLOW RIGHT FACE " ON UNIT  53 AT TIME STEP 58, STRESS PERIOD   2
 UBDSV1 SAVING "FLOW FRONT FACE " ON UNIT  53 AT TIME STEP 58, STRESS PERIOD   2
 UBDSV1 SAVING "FLOW LOWER FACE " ON UNIT  53 AT TIME STEP 58, STRESS PERIOD   2
1
              HEAD IN LAYER   1 AT END OF TIME STEP  58 IN STRESS PERIOD    2
  ---------------------------------------------------------------------------

            1           2           3           4           5
 ............................................................
   1    9.998       7.498       4.999       2.501      2.9974E-03
   2    9.998       7.498       4.999       2.501      2.9974E-03
   3    9.998       7.498       4.999       2.501      2.9974E-03
   4    9.998       7.498       4.999       2.501      2.9974E-03
   5    9.998       7.498       4.999       2.501      2.9974E-03
1
              HEAD IN LAYER   2 AT END OF TIME STEP  58 IN STRESS PERIOD    2
  ---------------------------------------------------------------------------

            1           2           3           4           5
 ............................................................
   1    9.998       7.498       4.999       2.501      2.9974E-03
   2    9.998       7.498       4.999       2.501      2.9974E-03
   3    9.998       7.498       4.999       2.501      2.9974E-03
   4    9.998       7.498       4.999       2.501      2.9974E-03
   5    9.998       7.498       4.999       2.501      2.9974E-03
1
              HEAD IN LAYER   3 AT END OF TIME STEP  58 IN STRESS PERIOD    2
  ---------------------------------------------------------------------------

            1           2           3           4           5
 ............................................................
   1    9.998       7.498       4.999       2.501      2.9974E-03
   2    9.998       7.498       4.999       2.501      2.9974E-03
   3    9.998       7.498       4.999       2.501      2.9974E-03
   4    9.998       7.498       4.999       2.501      2.9974E-03
   5    9.998       7.498       4.999       2.501      2.9974E-03
1
              HEAD IN LAYER   4 AT END OF TIME STEP  58 IN STRESS PERIOD    2
  ---------------------------------------------------------------------------

            1           2           3           4           5
 ............................................................
   1    9.998       7.498       4.999       2.501      2.9974E-03
   2    9.998       7.498       4.999       2.501      2.9974E-03
   3    9.998       7.498       4.999       2.501      2.9974E-03
   4    9.998       7.498       4.999       2.501      2.9974E-03
   5    9.998       7.498       4.999       2.501      2.9974E-03
1
              HEAD IN LAYER   5 AT END OF TIME STEP  58 IN STRESS PERIOD    2
  ---------------------------------------------------------------------------

            1           2           3           4           5
 ............................................................
   1    9.998       7.498       4.999       2.501      2.9974E-03
   2    9.998       7.498       4.999       2.501      2.9974E-03
   3    9.998       7.498       4.999       2.501      2.9974E-03
   4    9.998       7.498       4.999       2.501      2.9974E-03
   5    9.998       7.498       4.999       2.501      2.9974E-03

 HEAD WILL BE SAVED ON UNIT   51 AT END OF TIME STEP   58, STRESS PERIOD    2

 DRAWDOWN WILL BE SAVED ON UNIT   52 AT END OF TIME STEP   58, STRESS PERIOD    2
1
  VOLUMETRIC BUDGET FOR ENTIRE MODEL AT END OF TIME STEP   58, STRESS PERIOD   2
  ------------------------------------------------------------------------------

     CUMULATIVE VOLUMES      L**3       RATES FOR THIS TIME STEP      L**3/T
     ------------------                 ------------------------

           IN:                                      IN:
           ---                                      ---
             STORAGE =           0.0000               STORAGE =           0.0000
       CONSTANT HEAD =           0.0000         CONSTANT HEAD =           0.0000
               WELLS =           0.0000                 WELLS =           0.0000
     HEAD DEP BOUNDS =       55094.8477       HEAD DEP BOUNDS =         749.7511

            TOTAL IN =       55094.8477              TOTAL IN =         749.7511

          OUT:                                     OUT:
          ----                                     ----
             STORAGE =       14997.9053               STORAGE =           0.4654
       CONSTANT HEAD =           0.0000         CONSTANT HEAD =           0.0000
               WELLS =           0.0000                 WELLS =           0.0000
     HEAD DEP BOUNDS =       40098.2578       HEAD DEP BOUNDS =         749.3549

           TOTAL OUT =       55096.1641             TOTAL OUT =         749.8203

            IN - OUT =          -1.3164              IN - OUT =      -6.9214E-02

 PERCENT DISCREPANCY =          -0.00     PERCENT DISCREPANCY =          -0.01






         TIME SUMMARY AT END OF TIME STEP   58 IN STRESS PERIOD    2
                    SECONDS     MINUTES      HOURS       DAYS        YEARS
                    -----------------------------------------------------------
   TIME STEP LENGTH  86400.      1440.0      24.000      1.0000     2.73785E-03
 STRESS PERIOD TIME 5.01120E+06  83520.      1392.0      58.000     0.15880    
         TOTAL TIME 5.09760E+06  84960.      1416.0      59.000     0.16153    
1
 
 SOLVING FOR HEAD 

 OUTPUT CONTROL FOR STRESS PERIOD    2   TIME STEP   59
    SAVE HEAD FOR ALL LAYERS
    SAVE DRAWDOWN FOR ALL LAYERS
    SAVE BUDGET
    PRINT HEAD FOR ALL LAYERS
    PRINT BUDGET
 UBDSV1 SAVING "         STORAGE" ON UNIT  53 AT TIME STEP 59, STRESS PERIOD   2
 UBDSV2 SAVING "   CONSTANT HEAD" ON UNIT  53 AT TIME STEP 59, STRESS PERIOD   2
 UBDSV1 SAVING "FLOW RIGHT FACE " ON UNIT  53 AT TIME STEP 59, STRESS PERIOD   2
 UBDSV1 SAVING "FLOW FRONT FACE " ON UNIT  53 AT TIME STEP 59, STRESS PERIOD   2
 UBDSV1 SAVING "FLOW LOWER FACE " ON UNIT  53 AT TIME STEP 59, STRESS PERIOD   2
1
              HEAD IN LAYER   1 AT END OF TIME STEP  59 IN STRESS PERIOD    2
  ---------------------------------------------------------------------------

            1           2           3           4           5
 ............................................................
   1    9.998       7.498       4.999       2.501      2.9975E-03
   2    9.998       7.498       4.999       2.501      2.9975E-03
   3    9.998       7.498       4.999       2.501      2.9975E-03
   4    9.998       7.498       4.999       2.501      2.9975E-03
   5    9.998       7.498       4.999       2.501      2.9975E-03
1
              HEAD IN LAYER   2 AT END OF TIME STEP  59 IN STRESS PERIOD    2
  ---------------------------------------------------------------------------

            1           2           3           4           5
 ............................................................
   1    9.998       7.498       4.999       2.501      2.9975E-03
   2    9.998       7.498       4.999       2.501      2.9975E-03
   3    9.998       7.498       4.999       2.501      2.9975E-03
   4    9.998       7.498       4.999       2.501      2.9975E-03
   5    9.998       7.498       4.999       2.501      2.9975E-03
1
              HEAD IN LAYER   3 AT END OF TIME STEP  59 IN STRESS PERIOD    2
  ---------------------------------------------------------------------------

            1           2           3           4           5
 ............................................................
   1    9.998       7.498       4.999       2.501      2.9975E-03
   2    9.998       7.498       4.999       2.501      2.9975E-03
   3    9.998       7.498       4.999       2.501      2.9975E-03
   4    9.998       7.498       4.999       2.501      2.9975E-03
   5    9.998       7.498       4.999       2.501      2.9975E-03
1
              HEAD IN LAYER   4 AT END OF TIME STEP  59 IN STRESS PERIOD    2
  ---------------------------------------------------------------------------

            1           2           3           4           5
 ............................................................
   1    9.998       7.498       4.999       2.501      2.9975E-03
   2    9.998       7.498       4.999       2.501      2.9975E-03
   3    9.998       7.498       4.999       2.501      2.9975E-03
   4    9.998       7.498       4.999       2.501      2.9975E-03
   5    9.998       7.498       4.999       2.501      2.9975E-03
1
              HEAD IN LAYER   5 AT END OF TIME STEP  59 IN STRESS PERIOD    2
  ---------------------------------------------------------------------------

            1           2           3           4           5
 ............................................................
   1    9.998       7.498       4.999       2.501      2.9975E-03
   2    9.998       7.498       4.999       2.501      2.9975E-03
   3    9.998       7.498       4.999       2.501      2.9975E-03
   4    9.998       7.498       4.999       2.501      2.9975E-03
   5    9.998       7.498       4.999       2.501      2.9975E-03

 HEAD WILL BE SAVED ON UNIT   51 AT END OF TIME STEP   59, STRESS PERIOD    2

 DRAWDOWN WILL BE SAVED ON UNIT   52 AT END OF TIME STEP   59, STRESS PERIOD    2
1
  VOLUMETRIC BUDGET FOR ENTIRE MODEL AT END OF TIME STEP   59, STRESS PERIOD   2
  ------------------------------------------------------------------------------

     CUMULATIVE VOLUMES      L**3       RATES FOR THIS TIME STEP      L**3/T
     ------------------                 ------------------------

           IN:                                      IN:
           ---                                      ---
             STORAGE =           0.0000               STORAGE =           0.0000
       CONSTANT HEAD =           0.0000         CONSTANT HEAD =           0.0000
               WELLS =           0.0000                 WELLS =           0.0000
     HEAD DEP BOUNDS =       55844.5703       HEAD DEP BOUNDS =         749.7216

            TOTAL IN =       55844.5703              TOTAL IN =         749.7216

          OUT:                                     OUT:
          ----                                     ----
             STORAGE =       14998.3115               STORAGE =           0.4064
       CONSTANT HEAD =           0.0000         CONSTANT HEAD =           0.0000
               WELLS =           0.0000                 WELLS =           0.0000
     HEAD DEP BOUNDS =       40847.6406       HEAD DEP BOUNDS =         749.3846

           TOTAL OUT =       55845.9531             TOTAL OUT =         749.7910

            IN - OUT =          -1.3828              IN - OUT =      -6.9397E-02

 PERCENT DISCREPANCY =          -0.00     PERCENT DISCREPANCY =          -0.01






         TIME SUMMARY AT END OF TIME STEP   59 IN STRESS PERIOD    2
                    SECONDS     MINUTES      HOURS       DAYS        YEARS
                    -----------------------------------------------------------
   TIME STEP LENGTH  86400.      1440.0      24.000      1.0000     2.73785E-03
 STRESS PERIOD TIME 5.09760E+06  84960.      1416.0      59.000     0.16153    
         TOTAL TIME 5.18400E+06  86400.      1440.0      60.000     0.16427    
1
 
 SOLVING FOR HEAD 

 OUTPUT CONTROL FOR STRESS PERIOD    2   TIME STEP   60
    SAVE HEAD FOR ALL LAYERS
    SAVE DRAWDOWN FOR ALL LAYERS
    SAVE BUDGET
    PRINT HEAD FOR ALL LAYERS
    PRINT BUDGET
 UBDSV1 SAVING "         STORAGE" ON UNIT  53 AT TIME STEP 60, STRESS PERIOD   2
 UBDSV2 SAVING "   CONSTANT HEAD" ON UNIT  53 AT TIME STEP 60, STRESS PERIOD   2
 UBDSV1 SAVING "FLOW RIGHT FACE " ON UNIT  53 AT TIME STEP 60, STRESS PERIOD   2
 UBDSV1 SAVING "FLOW FRONT FACE " ON UNIT  53 AT TIME STEP 60, STRESS PERIOD   2
 UBDSV1 SAVING "FLOW LOWER FACE " ON UNIT  53 AT TIME STEP 60, STRESS PERIOD   2
1
              HEAD IN LAYER   1 AT END OF TIME STEP  60 IN STRESS PERIOD    2
  ---------------------------------------------------------------------------

            1           2           3           4           5
 ............................................................
   1    9.998       7.498       4.999       2.501      2.9976E-03
   2    9.998       7.498       4.999       2.501      2.9976E-03
   3    9.998       7.498       4.999       2.501      2.9976E-03
   4    9.998       7.498       4.999       2.501      2.9976E-03
   5    9.998       7.498       4.999       2.501      2.9976E-03
1
              HEAD IN LAYER   2 AT END OF TIME STEP  60 IN STRESS PERIOD    2
  ---------------------------------------------------------------------------

            1           2           3           4           5
 ............................................................
   1    9.998       7.498       4.999       2.501      2.9976E-03
   2    9.998       7.498       4.999       2.501      2.9976E-03
   3    9.998       7.498       4.999       2.501      2.9976E-03
   4    9.998       7.498       4.999       2.501      2.9976E-03
   5    9.998       7.498       4.999       2.501      2.9976E-03
1
              HEAD IN LAYER   3 AT END OF TIME STEP  60 IN STRESS PERIOD    2
  ---------------------------------------------------------------------------

            1           2           3           4           5
 ............................................................
   1    9.998       7.498       4.999       2.501      2.9976E-03
   2    9.998       7.498       4.999       2.501      2.9976E-03
   3    9.998       7.498       4.999       2.501      2.9976E-03
   4    9.998       7.498       4.999       2.501      2.9976E-03
   5    9.998       7.498       4.999       2.501      2.9976E-03
1
              HEAD IN LAYER   4 AT END OF TIME STEP  60 IN STRESS PERIOD    2
  ---------------------------------------------------------------------------

            1           2           3           4           5
 ............................................................
   1    9.998       7.498       4.999       2.501      2.9976E-03
   2    9.998       7.498       4.999       2.501      2.9976E-03
   3    9.998       7.498       4.999       2.501      2.9976E-03
   4    9.998       7.498       4.999       2.501      2.9976E-03
   5    9.998       7.498       4.999       2.501      2.9976E-03
1
              HEAD IN LAYER   5 AT END OF TIME STEP  60 IN STRESS PERIOD    2
  ---------------------------------------------------------------------------

            1           2           3           4           5
 ............................................................
   1    9.998       7.498       4.999       2.501      2.9976E-03
   2    9.998       7.498       4.999       2.501      2.9976E-03
   3    9.998       7.498       4.999       2.501      2.9976E-03
   4    9.998       7.498       4.999       2.501      2.9976E-03
   5    9.998       7.498       4.999       2.501      2.9976E-03

 HEAD WILL BE SAVED ON UNIT   51 AT END OF TIME STEP   60, STRESS PERIOD    2

 DRAWDOWN WILL BE SAVED ON UNIT   52 AT END OF TIME STEP   60, STRESS PERIOD    2
1
  VOLUMETRIC BUDGET FOR ENTIRE MODEL AT END OF TIME STEP   60, STRESS PERIOD   2
  ------------------------------------------------------------------------------

     CUMULATIVE VOLUMES      L**3       RATES FOR THIS TIME STEP      L**3/T
     ------------------                 ------------------------

           IN:                                      IN:
           ---                                      ---
             STORAGE =           0.0000               STORAGE =           0.0000
       CONSTANT HEAD =           0.0000         CONSTANT HEAD =           0.0000
               WELLS =           0.0000                 WELLS =           0.0000
     HEAD DEP BOUNDS =       56594.2656       HEAD DEP BOUNDS =         749.6958

            TOTAL IN =       56594.2656              TOTAL IN =         749.6958

          OUT:                                     OUT:
          ----                                     ----
             STORAGE =       14998.6660               STORAGE =           0.3543
       CONSTANT HEAD =           0.0000         CONSTANT HEAD =           0.0000
               WELLS =           0.0000                 WELLS =           0.0000
     HEAD DEP BOUNDS =       41597.0508       HEAD DEP BOUNDS =         749.4105

           TOTAL OUT =       56595.7188             TOTAL OUT =         749.7648

            IN - OUT =          -1.4531              IN - OUT =      -6.9031E-02

 PERCENT DISCREPANCY =          -0.00     PERCENT DISCREPANCY =          -0.01






         TIME SUMMARY AT END OF TIME STEP   60 IN STRESS PERIOD    2
                    SECONDS     MINUTES      HOURS       DAYS        YEARS
                    -----------------------------------------------------------
   TIME STEP LENGTH  86400.      1440.0      24.000      1.0000     2.73785E-03
 STRESS PERIOD TIME 5.18400E+06  86400.      1440.0      60.000     0.16427    
         TOTAL TIME 5.27040E+06  87840.      1464.0      61.000     0.16701    
1
 
 SOLVING FOR HEAD 

 OUTPUT CONTROL FOR STRESS PERIOD    2   TIME STEP   61
    SAVE HEAD FOR ALL LAYERS
    SAVE DRAWDOWN FOR ALL LAYERS
    SAVE BUDGET
    PRINT HEAD FOR ALL LAYERS
    PRINT BUDGET
 UBDSV1 SAVING "         STORAGE" ON UNIT  53 AT TIME STEP 61, STRESS PERIOD   2
 UBDSV2 SAVING "   CONSTANT HEAD" ON UNIT  53 AT TIME STEP 61, STRESS PERIOD   2
 UBDSV1 SAVING "FLOW RIGHT FACE " ON UNIT  53 AT TIME STEP 61, STRESS PERIOD   2
 UBDSV1 SAVING "FLOW FRONT FACE " ON UNIT  53 AT TIME STEP 61, STRESS PERIOD   2
 UBDSV1 SAVING "FLOW LOWER FACE " ON UNIT  53 AT TIME STEP 61, STRESS PERIOD   2
1
              HEAD IN LAYER   1 AT END OF TIME STEP  61 IN STRESS PERIOD    2
  ---------------------------------------------------------------------------

            1           2           3           4           5
 ............................................................
   1    9.998       7.498       5.000       2.501      2.9977E-03
   2    9.998       7.498       5.000       2.501      2.9977E-03
   3    9.998       7.498       5.000       2.501      2.9977E-03
   4    9.998       7.498       5.000       2.501      2.9977E-03
   5    9.998       7.498       5.000       2.501      2.9977E-03
1
              HEAD IN LAYER   2 AT END OF TIME STEP  61 IN STRESS PERIOD    2
  ---------------------------------------------------------------------------

            1           2           3           4           5
 ............................................................
   1    9.998       7.498       5.000       2.501      2.9977E-03
   2    9.998       7.498       5.000       2.501      2.9977E-03
   3    9.998       7.498       5.000       2.501      2.9977E-03
   4    9.998       7.498       5.000       2.501      2.9977E-03
   5    9.998       7.498       5.000       2.501      2.9977E-03
1
              HEAD IN LAYER   3 AT END OF TIME STEP  61 IN STRESS PERIOD    2
  ---------------------------------------------------------------------------

            1           2           3           4           5
 ............................................................
   1    9.998       7.498       5.000       2.501      2.9977E-03
   2    9.998       7.498       5.000       2.501      2.9977E-03
   3    9.998       7.498       5.000       2.501      2.9977E-03
   4    9.998       7.498       5.000       2.501      2.9977E-03
   5    9.998       7.498       5.000       2.501      2.9977E-03
1
              HEAD IN LAYER   4 AT END OF TIME STEP  61 IN STRESS PERIOD    2
  ---------------------------------------------------------------------------

            1           2           3           4           5
 ............................................................
   1    9.998       7.498       5.000       2.501      2.9977E-03
   2    9.998       7.498       5.000       2.501      2.9977E-03
   3    9.998       7.498       5.000       2.501      2.9977E-03
   4    9.998       7.498       5.000       2.501      2.9977E-03
   5    9.998       7.498       5.000       2.501      2.9977E-03
1
              HEAD IN LAYER   5 AT END OF TIME STEP  61 IN STRESS PERIOD    2
  ---------------------------------------------------------------------------

            1           2           3           4           5
 ............................................................
   1    9.998       7.498       5.000       2.501      2.9977E-03
   2    9.998       7.498       5.000       2.501      2.9977E-03
   3    9.998       7.498       5.000       2.501      2.9977E-03
   4    9.998       7.498       5.000       2.501      2.9977E-03
   5    9.998       7.498       5.000       2.501      2.9977E-03

 HEAD WILL BE SAVED ON UNIT   51 AT END OF TIME STEP   61, STRESS PERIOD    2

 DRAWDOWN WILL BE SAVED ON UNIT   52 AT END OF TIME STEP   61, STRESS PERIOD    2
1
  VOLUMETRIC BUDGET FOR ENTIRE MODEL AT END OF TIME STEP   61, STRESS PERIOD   2
  ------------------------------------------------------------------------------

     CUMULATIVE VOLUMES      L**3       RATES FOR THIS TIME STEP      L**3/T
     ------------------                 ------------------------

           IN:                                      IN:
           ---                                      ---
             STORAGE =           0.0000               STORAGE =           0.0000
       CONSTANT HEAD =           0.0000         CONSTANT HEAD =           0.0000
               WELLS =           0.0000                 WELLS =           0.0000
     HEAD DEP BOUNDS =       57343.9375       HEAD DEP BOUNDS =         749.6733

            TOTAL IN =       57343.9375              TOTAL IN =         749.6733

          OUT:                                     OUT:
          ----                                     ----
             STORAGE =       14998.9756               STORAGE =           0.3094
       CONSTANT HEAD =           0.0000         CONSTANT HEAD =           0.0000
               WELLS =           0.0000                 WELLS =           0.0000
     HEAD DEP BOUNDS =       42346.4844       HEAD DEP BOUNDS =         749.4332

           TOTAL OUT =       57345.4609             TOTAL OUT =         749.7426

            IN - OUT =          -1.5234              IN - OUT =      -6.9275E-02

 PERCENT DISCREPANCY =          -0.00     PERCENT DISCREPANCY =          -0.01






         TIME SUMMARY AT END OF TIME STEP   61 IN STRESS PERIOD    2
                    SECONDS     MINUTES      HOURS       DAYS        YEARS
                    -----------------------------------------------------------
   TIME STEP LENGTH  86400.      1440.0      24.000      1.0000     2.73785E-03
 STRESS PERIOD TIME 5.27040E+06  87840.      1464.0      61.000     0.16701    
         TOTAL TIME 5.35680E+06  89280.      1488.0      62.000     0.16975    
1
 
 SOLVING FOR HEAD 

 OUTPUT CONTROL FOR STRESS PERIOD    2   TIME STEP   62
    SAVE HEAD FOR ALL LAYERS
    SAVE DRAWDOWN FOR ALL LAYERS
    SAVE BUDGET
    PRINT HEAD FOR ALL LAYERS
    PRINT BUDGET
 UBDSV1 SAVING "         STORAGE" ON UNIT  53 AT TIME STEP 62, STRESS PERIOD   2
 UBDSV2 SAVING "   CONSTANT HEAD" ON UNIT  53 AT TIME STEP 62, STRESS PERIOD   2
 UBDSV1 SAVING "FLOW RIGHT FACE " ON UNIT  53 AT TIME STEP 62, STRESS PERIOD   2
 UBDSV1 SAVING "FLOW FRONT FACE " ON UNIT  53 AT TIME STEP 62, STRESS PERIOD   2
 UBDSV1 SAVING "FLOW LOWER FACE " ON UNIT  53 AT TIME STEP 62, STRESS PERIOD   2
1
              HEAD IN LAYER   1 AT END OF TIME STEP  62 IN STRESS PERIOD    2
  ---------------------------------------------------------------------------

            1           2           3           4           5
 ............................................................
   1    9.998       7.498       5.000       2.501      2.9978E-03
   2    9.998       7.498       5.000       2.501      2.9978E-03
   3    9.998       7.498       5.000       2.501      2.9978E-03
   4    9.998       7.498       5.000       2.501      2.9978E-03
   5    9.998       7.498       5.000       2.501      2.9978E-03
1
              HEAD IN LAYER   2 AT END OF TIME STEP  62 IN STRESS PERIOD    2
  ---------------------------------------------------------------------------

            1           2           3           4           5
 ............................................................
   1    9.998       7.498       5.000       2.501      2.9978E-03
   2    9.998       7.498       5.000       2.501      2.9978E-03
   3    9.998       7.498       5.000       2.501      2.9978E-03
   4    9.998       7.498       5.000       2.501      2.9978E-03
   5    9.998       7.498       5.000       2.501      2.9978E-03
1
              HEAD IN LAYER   3 AT END OF TIME STEP  62 IN STRESS PERIOD    2
  ---------------------------------------------------------------------------

            1           2           3           4           5
 ............................................................
   1    9.998       7.498       5.000       2.501      2.9978E-03
   2    9.998       7.498       5.000       2.501      2.9978E-03
   3    9.998       7.498       5.000       2.501      2.9978E-03
   4    9.998       7.498       5.000       2.501      2.9978E-03
   5    9.998       7.498       5.000       2.501      2.9978E-03
1
              HEAD IN LAYER   4 AT END OF TIME STEP  62 IN STRESS PERIOD    2
  ---------------------------------------------------------------------------

            1           2           3           4           5
 ............................................................
   1    9.998       7.498       5.000       2.501      2.9978E-03
   2    9.998       7.498       5.000       2.501      2.9978E-03
   3    9.998       7.498       5.000       2.501      2.9978E-03
   4    9.998       7.498       5.000       2.501      2.9978E-03
   5    9.998       7.498       5.000       2.501      2.9978E-03
1
              HEAD IN LAYER   5 AT END OF TIME STEP  62 IN STRESS PERIOD    2
  ---------------------------------------------------------------------------

            1           2           3           4           5
 ............................................................
   1    9.998       7.498       5.000       2.501      2.9978E-03
   2    9.998       7.498       5.000       2.501      2.9978E-03
   3    9.998       7.498       5.000       2.501      2.9978E-03
   4    9.998       7.498       5.000       2.501      2.9978E-03
   5    9.998       7.498       5.000       2.501      2.9978E-03

 HEAD WILL BE SAVED ON UNIT   51 AT END OF TIME STEP   62, STRESS PERIOD    2

 DRAWDOWN WILL BE SAVED ON UNIT   52 AT END OF TIME STEP   62, STRESS PERIOD    2
1
  VOLUMETRIC BUDGET FOR ENTIRE MODEL AT END OF TIME STEP   62, STRESS PERIOD   2
  ------------------------------------------------------------------------------

     CUMULATIVE VOLUMES      L**3       RATES FOR THIS TIME STEP      L**3/T
     ------------------                 ------------------------

           IN:                                      IN:
           ---                                      ---
             STORAGE =           0.0000               STORAGE =           0.0000
       CONSTANT HEAD =           0.0000         CONSTANT HEAD =           0.0000
               WELLS =           0.0000                 WELLS =           0.0000
     HEAD DEP BOUNDS =       58093.5898       HEAD DEP BOUNDS =         749.6536

            TOTAL IN =       58093.5898              TOTAL IN =         749.6536

          OUT:                                     OUT:
          ----                                     ----
             STORAGE =       14999.2451               STORAGE =           0.2696
       CONSTANT HEAD =           0.0000         CONSTANT HEAD =           0.0000
               WELLS =           0.0000                 WELLS =           0.0000
     HEAD DEP BOUNDS =       43095.9375       HEAD DEP BOUNDS =         749.4529

           TOTAL OUT =       58095.1836             TOTAL OUT =         749.7225

            IN - OUT =          -1.5938              IN - OUT =      -6.8909E-02

 PERCENT DISCREPANCY =          -0.00     PERCENT DISCREPANCY =          -0.01






         TIME SUMMARY AT END OF TIME STEP   62 IN STRESS PERIOD    2
                    SECONDS     MINUTES      HOURS       DAYS        YEARS
                    -----------------------------------------------------------
   TIME STEP LENGTH  86400.      1440.0      24.000      1.0000     2.73785E-03
 STRESS PERIOD TIME 5.35680E+06  89280.      1488.0      62.000     0.16975    
         TOTAL TIME 5.44320E+06  90720.      1512.0      63.000     0.17248    
1
 
 SOLVING FOR HEAD 

 OUTPUT CONTROL FOR STRESS PERIOD    2   TIME STEP   63
    SAVE HEAD FOR ALL LAYERS
    SAVE DRAWDOWN FOR ALL LAYERS
    SAVE BUDGET
    PRINT HEAD FOR ALL LAYERS
    PRINT BUDGET
 UBDSV1 SAVING "         STORAGE" ON UNIT  53 AT TIME STEP 63, STRESS PERIOD   2
 UBDSV2 SAVING "   CONSTANT HEAD" ON UNIT  53 AT TIME STEP 63, STRESS PERIOD   2
 UBDSV1 SAVING "FLOW RIGHT FACE " ON UNIT  53 AT TIME STEP 63, STRESS PERIOD   2
 UBDSV1 SAVING "FLOW FRONT FACE " ON UNIT  53 AT TIME STEP 63, STRESS PERIOD   2
 UBDSV1 SAVING "FLOW LOWER FACE " ON UNIT  53 AT TIME STEP 63, STRESS PERIOD   2
1
              HEAD IN LAYER   1 AT END OF TIME STEP  63 IN STRESS PERIOD    2
  ---------------------------------------------------------------------------

            1           2           3           4           5
 ............................................................
   1    9.998       7.498       5.000       2.501      2.9979E-03
   2    9.998       7.498       5.000       2.501      2.9979E-03
   3    9.998       7.498       5.000       2.501      2.9979E-03
   4    9.998       7.498       5.000       2.501      2.9979E-03
   5    9.998       7.498       5.000       2.501      2.9979E-03
1
              HEAD IN LAYER   2 AT END OF TIME STEP  63 IN STRESS PERIOD    2
  ---------------------------------------------------------------------------

            1           2           3           4           5
 ............................................................
   1    9.998       7.498       5.000       2.501      2.9979E-03
   2    9.998       7.498       5.000       2.501      2.9979E-03
   3    9.998       7.498       5.000       2.501      2.9979E-03
   4    9.998       7.498       5.000       2.501      2.9979E-03
   5    9.998       7.498       5.000       2.501      2.9979E-03
1
              HEAD IN LAYER   3 AT END OF TIME STEP  63 IN STRESS PERIOD    2
  ---------------------------------------------------------------------------

            1           2           3           4           5
 ............................................................
   1    9.998       7.498       5.000       2.501      2.9979E-03
   2    9.998       7.498       5.000       2.501      2.9979E-03
   3    9.998       7.498       5.000       2.501      2.9979E-03
   4    9.998       7.498       5.000       2.501      2.9979E-03
   5    9.998       7.498       5.000       2.501      2.9979E-03
1
              HEAD IN LAYER   4 AT END OF TIME STEP  63 IN STRESS PERIOD    2
  ---------------------------------------------------------------------------

            1           2           3           4           5
 ............................................................
   1    9.998       7.498       5.000       2.501      2.9979E-03
   2    9.998       7.498       5.000       2.501      2.9979E-03
   3    9.998       7.498       5.000       2.501      2.9979E-03
   4    9.998       7.498       5.000       2.501      2.9979E-03
   5    9.998       7.498       5.000       2.501      2.9979E-03
1
              HEAD IN LAYER   5 AT END OF TIME STEP  63 IN STRESS PERIOD    2
  ---------------------------------------------------------------------------

            1           2           3           4           5
 ............................................................
   1    9.998       7.498       5.000       2.501      2.9979E-03
   2    9.998       7.498       5.000       2.501      2.9979E-03
   3    9.998       7.498       5.000       2.501      2.9979E-03
   4    9.998       7.498       5.000       2.501      2.9979E-03
   5    9.998       7.498       5.000       2.501      2.9979E-03

 HEAD WILL BE SAVED ON UNIT   51 AT END OF TIME STEP   63, STRESS PERIOD    2

 DRAWDOWN WILL BE SAVED ON UNIT   52 AT END OF TIME STEP   63, STRESS PERIOD    2
1
  VOLUMETRIC BUDGET FOR ENTIRE MODEL AT END OF TIME STEP   63, STRESS PERIOD   2
  ------------------------------------------------------------------------------

     CUMULATIVE VOLUMES      L**3       RATES FOR THIS TIME STEP      L**3/T
     ------------------                 ------------------------

           IN:                                      IN:
           ---                                      ---
             STORAGE =           0.0000               STORAGE =           0.0000
       CONSTANT HEAD =           0.0000         CONSTANT HEAD =           0.0000
               WELLS =           0.0000                 WELLS =           0.0000
     HEAD DEP BOUNDS =       58843.2266       HEAD DEP BOUNDS =         749.6365

            TOTAL IN =       58843.2266              TOTAL IN =         749.6365

          OUT:                                     OUT:
          ----                                     ----
             STORAGE =       14999.4805               STORAGE =           0.2350
       CONSTANT HEAD =           0.0000         CONSTANT HEAD =           0.0000
               WELLS =           0.0000                 WELLS =           0.0000
     HEAD DEP BOUNDS =       43845.4062       HEAD DEP BOUNDS =         749.4701

           TOTAL OUT =       58844.8867             TOTAL OUT =         749.7051

            IN - OUT =          -1.6602              IN - OUT =      -6.8542E-02

 PERCENT DISCREPANCY =          -0.00     PERCENT DISCREPANCY =          -0.01






         TIME SUMMARY AT END OF TIME STEP   63 IN STRESS PERIOD    2
                    SECONDS     MINUTES      HOURS       DAYS        YEARS
                    -----------------------------------------------------------
   TIME STEP LENGTH  86400.      1440.0      24.000      1.0000     2.73785E-03
 STRESS PERIOD TIME 5.44320E+06  90720.      1512.0      63.000     0.17248    
         TOTAL TIME 5.52960E+06  92160.      1536.0      64.000     0.17522    
1
 
 SOLVING FOR HEAD 

 OUTPUT CONTROL FOR STRESS PERIOD    2   TIME STEP   64
    SAVE HEAD FOR ALL LAYERS
    SAVE DRAWDOWN FOR ALL LAYERS
    SAVE BUDGET
    PRINT HEAD FOR ALL LAYERS
    PRINT BUDGET
 UBDSV1 SAVING "         STORAGE" ON UNIT  53 AT TIME STEP 64, STRESS PERIOD   2
 UBDSV2 SAVING "   CONSTANT HEAD" ON UNIT  53 AT TIME STEP 64, STRESS PERIOD   2
 UBDSV1 SAVING "FLOW RIGHT FACE " ON UNIT  53 AT TIME STEP 64, STRESS PERIOD   2
 UBDSV1 SAVING "FLOW FRONT FACE " ON UNIT  53 AT TIME STEP 64, STRESS PERIOD   2
 UBDSV1 SAVING "FLOW LOWER FACE " ON UNIT  53 AT TIME STEP 64, STRESS PERIOD   2
1
              HEAD IN LAYER   1 AT END OF TIME STEP  64 IN STRESS PERIOD    2
  ---------------------------------------------------------------------------

            1           2           3           4           5
 ............................................................
   1    9.998       7.499       5.000       2.501      2.9979E-03
   2    9.998       7.499       5.000       2.501      2.9979E-03
   3    9.998       7.499       5.000       2.501      2.9979E-03
   4    9.998       7.499       5.000       2.501      2.9979E-03
   5    9.998       7.499       5.000       2.501      2.9979E-03
1
              HEAD IN LAYER   2 AT END OF TIME STEP  64 IN STRESS PERIOD    2
  ---------------------------------------------------------------------------

            1           2           3           4           5
 ............................................................
   1    9.998       7.499       5.000       2.501      2.9979E-03
   2    9.998       7.499       5.000       2.501      2.9979E-03
   3    9.998       7.499       5.000       2.501      2.9979E-03
   4    9.998       7.499       5.000       2.501      2.9979E-03
   5    9.998       7.499       5.000       2.501      2.9979E-03
1
              HEAD IN LAYER   3 AT END OF TIME STEP  64 IN STRESS PERIOD    2
  ---------------------------------------------------------------------------

            1           2           3           4           5
 ............................................................
   1    9.998       7.499       5.000       2.501      2.9979E-03
   2    9.998       7.499       5.000       2.501      2.9979E-03
   3    9.998       7.499       5.000       2.501      2.9979E-03
   4    9.998       7.499       5.000       2.501      2.9979E-03
   5    9.998       7.499       5.000       2.501      2.9979E-03
1
              HEAD IN LAYER   4 AT END OF TIME STEP  64 IN STRESS PERIOD    2
  ---------------------------------------------------------------------------

            1           2           3           4           5
 ............................................................
   1    9.998       7.499       5.000       2.501      2.9979E-03
   2    9.998       7.499       5.000       2.501      2.9979E-03
   3    9.998       7.499       5.000       2.501      2.9979E-03
   4    9.998       7.499       5.000       2.501      2.9979E-03
   5    9.998       7.499       5.000       2.501      2.9979E-03
1
              HEAD IN LAYER   5 AT END OF TIME STEP  64 IN STRESS PERIOD    2
  ---------------------------------------------------------------------------

            1           2           3           4           5
 ............................................................
   1    9.998       7.499       5.000       2.501      2.9979E-03
   2    9.998       7.499       5.000       2.501      2.9979E-03
   3    9.998       7.499       5.000       2.501      2.9979E-03
   4    9.998       7.499       5.000       2.501      2.9979E-03
   5    9.998       7.499       5.000       2.501      2.9979E-03

 HEAD WILL BE SAVED ON UNIT   51 AT END OF TIME STEP   64, STRESS PERIOD    2

 DRAWDOWN WILL BE SAVED ON UNIT   52 AT END OF TIME STEP   64, STRESS PERIOD    2
1
  VOLUMETRIC BUDGET FOR ENTIRE MODEL AT END OF TIME STEP   64, STRESS PERIOD   2
  ------------------------------------------------------------------------------

     CUMULATIVE VOLUMES      L**3       RATES FOR THIS TIME STEP      L**3/T
     ------------------                 ------------------------

           IN:                                      IN:
           ---                                      ---
             STORAGE =           0.0000               STORAGE =           0.0000
       CONSTANT HEAD =           0.0000         CONSTANT HEAD =           0.0000
               WELLS =           0.0000                 WELLS =           0.0000
     HEAD DEP BOUNDS =       59592.8477       HEAD DEP BOUNDS =         749.6216

            TOTAL IN =       59592.8477              TOTAL IN =         749.6216

          OUT:                                     OUT:
          ----                                     ----
             STORAGE =       14999.6855               STORAGE =           0.2055
       CONSTANT HEAD =           0.0000         CONSTANT HEAD =           0.0000
               WELLS =           0.0000                 WELLS =           0.0000
     HEAD DEP BOUNDS =       44594.8906       HEAD DEP BOUNDS =         749.4851

           TOTAL OUT =       59594.5781             TOTAL OUT =         749.6906

            IN - OUT =          -1.7305              IN - OUT =      -6.9031E-02

 PERCENT DISCREPANCY =          -0.00     PERCENT DISCREPANCY =          -0.01






         TIME SUMMARY AT END OF TIME STEP   64 IN STRESS PERIOD    2
                    SECONDS     MINUTES      HOURS       DAYS        YEARS
                    -----------------------------------------------------------
   TIME STEP LENGTH  86400.      1440.0      24.000      1.0000     2.73785E-03
 STRESS PERIOD TIME 5.52960E+06  92160.      1536.0      64.000     0.17522    
         TOTAL TIME 5.61600E+06  93600.      1560.0      65.000     0.17796    
1
 
 SOLVING FOR HEAD 

 OUTPUT CONTROL FOR STRESS PERIOD    2   TIME STEP   65
    SAVE HEAD FOR ALL LAYERS
    SAVE DRAWDOWN FOR ALL LAYERS
    SAVE BUDGET
    PRINT HEAD FOR ALL LAYERS
    PRINT BUDGET
 UBDSV1 SAVING "         STORAGE" ON UNIT  53 AT TIME STEP 65, STRESS PERIOD   2
 UBDSV2 SAVING "   CONSTANT HEAD" ON UNIT  53 AT TIME STEP 65, STRESS PERIOD   2
 UBDSV1 SAVING "FLOW RIGHT FACE " ON UNIT  53 AT TIME STEP 65, STRESS PERIOD   2
 UBDSV1 SAVING "FLOW FRONT FACE " ON UNIT  53 AT TIME STEP 65, STRESS PERIOD   2
 UBDSV1 SAVING "FLOW LOWER FACE " ON UNIT  53 AT TIME STEP 65, STRESS PERIOD   2
1
              HEAD IN LAYER   1 AT END OF TIME STEP  65 IN STRESS PERIOD    2
  ---------------------------------------------------------------------------

            1           2           3           4           5
 ............................................................
   1    9.998       7.499       5.000       2.501      2.9980E-03
   2    9.998       7.499       5.000       2.501      2.9980E-03
   3    9.998       7.499       5.000       2.501      2.9980E-03
   4    9.998       7.499       5.000       2.501      2.9980E-03
   5    9.998       7.499       5.000       2.501      2.9980E-03
1
              HEAD IN LAYER   2 AT END OF TIME STEP  65 IN STRESS PERIOD    2
  ---------------------------------------------------------------------------

            1           2           3           4           5
 ............................................................
   1    9.998       7.499       5.000       2.501      2.9980E-03
   2    9.998       7.499       5.000       2.501      2.9980E-03
   3    9.998       7.499       5.000       2.501      2.9980E-03
   4    9.998       7.499       5.000       2.501      2.9980E-03
   5    9.998       7.499       5.000       2.501      2.9980E-03
1
              HEAD IN LAYER   3 AT END OF TIME STEP  65 IN STRESS PERIOD    2
  ---------------------------------------------------------------------------

            1           2           3           4           5
 ............................................................
   1    9.998       7.499       5.000       2.501      2.9980E-03
   2    9.998       7.499       5.000       2.501      2.9980E-03
   3    9.998       7.499       5.000       2.501      2.9980E-03
   4    9.998       7.499       5.000       2.501      2.9980E-03
   5    9.998       7.499       5.000       2.501      2.9980E-03
1
              HEAD IN LAYER   4 AT END OF TIME STEP  65 IN STRESS PERIOD    2
  ---------------------------------------------------------------------------

            1           2           3           4           5
 ............................................................
   1    9.998       7.499       5.000       2.501      2.9980E-03
   2    9.998       7.499       5.000       2.501      2.9980E-03
   3    9.998       7.499       5.000       2.501      2.9980E-03
   4    9.998       7.499       5.000       2.501      2.9980E-03
   5    9.998       7.499       5.000       2.501      2.9980E-03
1
              HEAD IN LAYER   5 AT END OF TIME STEP  65 IN STRESS PERIOD    2
  ---------------------------------------------------------------------------

            1           2           3           4           5
 ............................................................
   1    9.998       7.499       5.000       2.501      2.9980E-03
   2    9.998       7.499       5.000       2.501      2.9980E-03
   3    9.998       7.499       5.000       2.501      2.9980E-03
   4    9.998       7.499       5.000       2.501      2.9980E-03
   5    9.998       7.499       5.000       2.501      2.9980E-03

 HEAD WILL BE SAVED ON UNIT   51 AT END OF TIME STEP   65, STRESS PERIOD    2

 DRAWDOWN WILL BE SAVED ON UNIT   52 AT END OF TIME STEP   65, STRESS PERIOD    2
1
  VOLUMETRIC BUDGET FOR ENTIRE MODEL AT END OF TIME STEP   65, STRESS PERIOD   2
  ------------------------------------------------------------------------------

     CUMULATIVE VOLUMES      L**3       RATES FOR THIS TIME STEP      L**3/T
     ------------------                 ------------------------

           IN:                                      IN:
           ---                                      ---
             STORAGE =           0.0000               STORAGE =           0.0000
       CONSTANT HEAD =           0.0000         CONSTANT HEAD =           0.0000
               WELLS =           0.0000                 WELLS =           0.0000
     HEAD DEP BOUNDS =       60342.4570       HEAD DEP BOUNDS =         749.6085

            TOTAL IN =       60342.4570              TOTAL IN =         749.6085

          OUT:                                     OUT:
          ----                                     ----
             STORAGE =       14999.8643               STORAGE =           0.1789
       CONSTANT HEAD =           0.0000         CONSTANT HEAD =           0.0000
               WELLS =           0.0000                 WELLS =           0.0000
     HEAD DEP BOUNDS =       45344.3906       HEAD DEP BOUNDS =         749.4982

           TOTAL OUT =       60344.2539             TOTAL OUT =         749.6771

            IN - OUT =          -1.7969              IN - OUT =      -6.8604E-02

 PERCENT DISCREPANCY =          -0.00     PERCENT DISCREPANCY =          -0.01






         TIME SUMMARY AT END OF TIME STEP   65 IN STRESS PERIOD    2
                    SECONDS     MINUTES      HOURS       DAYS        YEARS
                    -----------------------------------------------------------
   TIME STEP LENGTH  86400.      1440.0      24.000      1.0000     2.73785E-03
 STRESS PERIOD TIME 5.61600E+06  93600.      1560.0      65.000     0.17796    
         TOTAL TIME 5.70240E+06  95040.      1584.0      66.000     0.18070    
1
 
 SOLVING FOR HEAD 

 OUTPUT CONTROL FOR STRESS PERIOD    2   TIME STEP   66
    SAVE HEAD FOR ALL LAYERS
    SAVE DRAWDOWN FOR ALL LAYERS
    SAVE BUDGET
    PRINT HEAD FOR ALL LAYERS
    PRINT BUDGET
 UBDSV1 SAVING "         STORAGE" ON UNIT  53 AT TIME STEP 66, STRESS PERIOD   2
 UBDSV2 SAVING "   CONSTANT HEAD" ON UNIT  53 AT TIME STEP 66, STRESS PERIOD   2
 UBDSV1 SAVING "FLOW RIGHT FACE " ON UNIT  53 AT TIME STEP 66, STRESS PERIOD   2
 UBDSV1 SAVING "FLOW FRONT FACE " ON UNIT  53 AT TIME STEP 66, STRESS PERIOD   2
 UBDSV1 SAVING "FLOW LOWER FACE " ON UNIT  53 AT TIME STEP 66, STRESS PERIOD   2
1
              HEAD IN LAYER   1 AT END OF TIME STEP  66 IN STRESS PERIOD    2
  ---------------------------------------------------------------------------

            1           2           3           4           5
 ............................................................
   1    9.998       7.499       5.000       2.501      2.9980E-03
   2    9.998       7.499       5.000       2.501      2.9980E-03
   3    9.998       7.499       5.000       2.501      2.9980E-03
   4    9.998       7.499       5.000       2.501      2.9980E-03
   5    9.998       7.499       5.000       2.501      2.9980E-03
1
              HEAD IN LAYER   2 AT END OF TIME STEP  66 IN STRESS PERIOD    2
  ---------------------------------------------------------------------------

            1           2           3           4           5
 ............................................................
   1    9.998       7.499       5.000       2.501      2.9980E-03
   2    9.998       7.499       5.000       2.501      2.9980E-03
   3    9.998       7.499       5.000       2.501      2.9980E-03
   4    9.998       7.499       5.000       2.501      2.9980E-03
   5    9.998       7.499       5.000       2.501      2.9980E-03
1
              HEAD IN LAYER   3 AT END OF TIME STEP  66 IN STRESS PERIOD    2
  ---------------------------------------------------------------------------

            1           2           3           4           5
 ............................................................
   1    9.998       7.499       5.000       2.501      2.9980E-03
   2    9.998       7.499       5.000       2.501      2.9980E-03
   3    9.998       7.499       5.000       2.501      2.9980E-03
   4    9.998       7.499       5.000       2.501      2.9980E-03
   5    9.998       7.499       5.000       2.501      2.9980E-03
1
              HEAD IN LAYER   4 AT END OF TIME STEP  66 IN STRESS PERIOD    2
  ---------------------------------------------------------------------------

            1           2           3           4           5
 ............................................................
   1    9.998       7.499       5.000       2.501      2.9980E-03
   2    9.998       7.499       5.000       2.501      2.9980E-03
   3    9.998       7.499       5.000       2.501      2.9980E-03
   4    9.998       7.499       5.000       2.501      2.9980E-03
   5    9.998       7.499       5.000       2.501      2.9980E-03
1
              HEAD IN LAYER   5 AT END OF TIME STEP  66 IN STRESS PERIOD    2
  ---------------------------------------------------------------------------

            1           2           3           4           5
 ............................................................
   1    9.998       7.499       5.000       2.501      2.9980E-03
   2    9.998       7.499       5.000       2.501      2.9980E-03
   3    9.998       7.499       5.000       2.501      2.9980E-03
   4    9.998       7.499       5.000       2.501      2.9980E-03
   5    9.998       7.499       5.000       2.501      2.9980E-03

 HEAD WILL BE SAVED ON UNIT   51 AT END OF TIME STEP   66, STRESS PERIOD    2

 DRAWDOWN WILL BE SAVED ON UNIT   52 AT END OF TIME STEP   66, STRESS PERIOD    2
1
  VOLUMETRIC BUDGET FOR ENTIRE MODEL AT END OF TIME STEP   66, STRESS PERIOD   2
  ------------------------------------------------------------------------------

     CUMULATIVE VOLUMES      L**3       RATES FOR THIS TIME STEP      L**3/T
     ------------------                 ------------------------

           IN:                                      IN:
           ---                                      ---
             STORAGE =           0.0000               STORAGE =           0.0000
       CONSTANT HEAD =           0.0000         CONSTANT HEAD =           0.0000
               WELLS =           0.0000                 WELLS =           0.0000
     HEAD DEP BOUNDS =       61092.0547       HEAD DEP BOUNDS =         749.5971

            TOTAL IN =       61092.0547              TOTAL IN =         749.5971

          OUT:                                     OUT:
          ----                                     ----
             STORAGE =       15000.0205               STORAGE =           0.1563
       CONSTANT HEAD =           0.0000         CONSTANT HEAD =           0.0000
               WELLS =           0.0000                 WELLS =           0.0000
     HEAD DEP BOUNDS =       46093.8984       HEAD DEP BOUNDS =         749.5096

           TOTAL OUT =       61093.9180             TOTAL OUT =         749.6659

            IN - OUT =          -1.8633              IN - OUT =      -6.8787E-02

 PERCENT DISCREPANCY =          -0.00     PERCENT DISCREPANCY =          -0.01






         TIME SUMMARY AT END OF TIME STEP   66 IN STRESS PERIOD    2
                    SECONDS     MINUTES      HOURS       DAYS        YEARS
                    -----------------------------------------------------------
   TIME STEP LENGTH  86400.      1440.0      24.000      1.0000     2.73785E-03
 STRESS PERIOD TIME 5.70240E+06  95040.      1584.0      66.000     0.18070    
         TOTAL TIME 5.78880E+06  96480.      1608.0      67.000     0.18344    
1
 
 SOLVING FOR HEAD 

 OUTPUT CONTROL FOR STRESS PERIOD    2   TIME STEP   67
    SAVE HEAD FOR ALL LAYERS
    SAVE DRAWDOWN FOR ALL LAYERS
    SAVE BUDGET
    PRINT HEAD FOR ALL LAYERS
    PRINT BUDGET
 UBDSV1 SAVING "         STORAGE" ON UNIT  53 AT TIME STEP 67, STRESS PERIOD   2
 UBDSV2 SAVING "   CONSTANT HEAD" ON UNIT  53 AT TIME STEP 67, STRESS PERIOD   2
 UBDSV1 SAVING "FLOW RIGHT FACE " ON UNIT  53 AT TIME STEP 67, STRESS PERIOD   2
 UBDSV1 SAVING "FLOW FRONT FACE " ON UNIT  53 AT TIME STEP 67, STRESS PERIOD   2
 UBDSV1 SAVING "FLOW LOWER FACE " ON UNIT  53 AT TIME STEP 67, STRESS PERIOD   2
1
              HEAD IN LAYER   1 AT END OF TIME STEP  67 IN STRESS PERIOD    2
  ---------------------------------------------------------------------------

            1           2           3           4           5
 ............................................................
   1    9.998       7.499       5.000       2.501      2.9981E-03
   2    9.998       7.499       5.000       2.501      2.9981E-03
   3    9.998       7.499       5.000       2.501      2.9981E-03
   4    9.998       7.499       5.000       2.501      2.9981E-03
   5    9.998       7.499       5.000       2.501      2.9981E-03
1
              HEAD IN LAYER   2 AT END OF TIME STEP  67 IN STRESS PERIOD    2
  ---------------------------------------------------------------------------

            1           2           3           4           5
 ............................................................
   1    9.998       7.499       5.000       2.501      2.9981E-03
   2    9.998       7.499       5.000       2.501      2.9981E-03
   3    9.998       7.499       5.000       2.501      2.9981E-03
   4    9.998       7.499       5.000       2.501      2.9981E-03
   5    9.998       7.499       5.000       2.501      2.9981E-03
1
              HEAD IN LAYER   3 AT END OF TIME STEP  67 IN STRESS PERIOD    2
  ---------------------------------------------------------------------------

            1           2           3           4           5
 ............................................................
   1    9.998       7.499       5.000       2.501      2.9981E-03
   2    9.998       7.499       5.000       2.501      2.9981E-03
   3    9.998       7.499       5.000       2.501      2.9981E-03
   4    9.998       7.499       5.000       2.501      2.9981E-03
   5    9.998       7.499       5.000       2.501      2.9981E-03
1
              HEAD IN LAYER   4 AT END OF TIME STEP  67 IN STRESS PERIOD    2
  ---------------------------------------------------------------------------

            1           2           3           4           5
 ............................................................
   1    9.998       7.499       5.000       2.501      2.9981E-03
   2    9.998       7.499       5.000       2.501      2.9981E-03
   3    9.998       7.499       5.000       2.501      2.9981E-03
   4    9.998       7.499       5.000       2.501      2.9981E-03
   5    9.998       7.499       5.000       2.501      2.9981E-03
1
              HEAD IN LAYER   5 AT END OF TIME STEP  67 IN STRESS PERIOD    2
  ---------------------------------------------------------------------------

            1           2           3           4           5
 ............................................................
   1    9.998       7.499       5.000       2.501      2.9981E-03
   2    9.998       7.499       5.000       2.501      2.9981E-03
   3    9.998       7.499       5.000       2.501      2.9981E-03
   4    9.998       7.499       5.000       2.501      2.9981E-03
   5    9.998       7.499       5.000       2.501      2.9981E-03

 HEAD WILL BE SAVED ON UNIT   51 AT END OF TIME STEP   67, STRESS PERIOD    2

 DRAWDOWN WILL BE SAVED ON UNIT   52 AT END OF TIME STEP   67, STRESS PERIOD    2
1
  VOLUMETRIC BUDGET FOR ENTIRE MODEL AT END OF TIME STEP   67, STRESS PERIOD   2
  ------------------------------------------------------------------------------

     CUMULATIVE VOLUMES      L**3       RATES FOR THIS TIME STEP      L**3/T
     ------------------                 ------------------------

           IN:                                      IN:
           ---                                      ---
             STORAGE =           0.0000               STORAGE =           0.0000
       CONSTANT HEAD =           0.0000         CONSTANT HEAD =           0.0000
               WELLS =           0.0000                 WELLS =           0.0000
     HEAD DEP BOUNDS =       61841.6406       HEAD DEP BOUNDS =         749.5872

            TOTAL IN =       61841.6406              TOTAL IN =         749.5872

          OUT:                                     OUT:
          ----                                     ----
             STORAGE =       15000.1572               STORAGE =           0.1365
       CONSTANT HEAD =           0.0000         CONSTANT HEAD =           0.0000
               WELLS =           0.0000                 WELLS =           0.0000
     HEAD DEP BOUNDS =       46843.4180       HEAD DEP BOUNDS =         749.5196

           TOTAL OUT =       61843.5742             TOTAL OUT =         749.6561

            IN - OUT =          -1.9336              IN - OUT =      -6.8909E-02

 PERCENT DISCREPANCY =          -0.00     PERCENT DISCREPANCY =          -0.01






         TIME SUMMARY AT END OF TIME STEP   67 IN STRESS PERIOD    2
                    SECONDS     MINUTES      HOURS       DAYS        YEARS
                    -----------------------------------------------------------
   TIME STEP LENGTH  86400.      1440.0      24.000      1.0000     2.73785E-03
 STRESS PERIOD TIME 5.78880E+06  96480.      1608.0      67.000     0.18344    
         TOTAL TIME 5.87520E+06  97920.      1632.0      68.000     0.18617    
1
 
 SOLVING FOR HEAD 

 OUTPUT CONTROL FOR STRESS PERIOD    2   TIME STEP   68
    SAVE HEAD FOR ALL LAYERS
    SAVE DRAWDOWN FOR ALL LAYERS
    SAVE BUDGET
    PRINT HEAD FOR ALL LAYERS
    PRINT BUDGET
 UBDSV1 SAVING "         STORAGE" ON UNIT  53 AT TIME STEP 68, STRESS PERIOD   2
 UBDSV2 SAVING "   CONSTANT HEAD" ON UNIT  53 AT TIME STEP 68, STRESS PERIOD   2
 UBDSV1 SAVING "FLOW RIGHT FACE " ON UNIT  53 AT TIME STEP 68, STRESS PERIOD   2
 UBDSV1 SAVING "FLOW FRONT FACE " ON UNIT  53 AT TIME STEP 68, STRESS PERIOD   2
 UBDSV1 SAVING "FLOW LOWER FACE " ON UNIT  53 AT TIME STEP 68, STRESS PERIOD   2
1
              HEAD IN LAYER   1 AT END OF TIME STEP  68 IN STRESS PERIOD    2
  ---------------------------------------------------------------------------

            1           2           3           4           5
 ............................................................
   1    9.998       7.499       5.000       2.501      2.9981E-03
   2    9.998       7.499       5.000       2.501      2.9981E-03
   3    9.998       7.499       5.000       2.501      2.9981E-03
   4    9.998       7.499       5.000       2.501      2.9981E-03
   5    9.998       7.499       5.000       2.501      2.9981E-03
1
              HEAD IN LAYER   2 AT END OF TIME STEP  68 IN STRESS PERIOD    2
  ---------------------------------------------------------------------------

            1           2           3           4           5
 ............................................................
   1    9.998       7.499       5.000       2.501      2.9981E-03
   2    9.998       7.499       5.000       2.501      2.9981E-03
   3    9.998       7.499       5.000       2.501      2.9981E-03
   4    9.998       7.499       5.000       2.501      2.9981E-03
   5    9.998       7.499       5.000       2.501      2.9981E-03
1
              HEAD IN LAYER   3 AT END OF TIME STEP  68 IN STRESS PERIOD    2
  ---------------------------------------------------------------------------

            1           2           3           4           5
 ............................................................
   1    9.998       7.499       5.000       2.501      2.9981E-03
   2    9.998       7.499       5.000       2.501      2.9981E-03
   3    9.998       7.499       5.000       2.501      2.9981E-03
   4    9.998       7.499       5.000       2.501      2.9981E-03
   5    9.998       7.499       5.000       2.501      2.9981E-03
1
              HEAD IN LAYER   4 AT END OF TIME STEP  68 IN STRESS PERIOD    2
  ---------------------------------------------------------------------------

            1           2           3           4           5
 ............................................................
   1    9.998       7.499       5.000       2.501      2.9981E-03
   2    9.998       7.499       5.000       2.501      2.9981E-03
   3    9.998       7.499       5.000       2.501      2.9981E-03
   4    9.998       7.499       5.000       2.501      2.9981E-03
   5    9.998       7.499       5.000       2.501      2.9981E-03
1
              HEAD IN LAYER   5 AT END OF TIME STEP  68 IN STRESS PERIOD    2
  ---------------------------------------------------------------------------

            1           2           3           4           5
 ............................................................
   1    9.998       7.499       5.000       2.501      2.9981E-03
   2    9.998       7.499       5.000       2.501      2.9981E-03
   3    9.998       7.499       5.000       2.501      2.9981E-03
   4    9.998       7.499       5.000       2.501      2.9981E-03
   5    9.998       7.499       5.000       2.501      2.9981E-03

 HEAD WILL BE SAVED ON UNIT   51 AT END OF TIME STEP   68, STRESS PERIOD    2

 DRAWDOWN WILL BE SAVED ON UNIT   52 AT END OF TIME STEP   68, STRESS PERIOD    2
1
  VOLUMETRIC BUDGET FOR ENTIRE MODEL AT END OF TIME STEP   68, STRESS PERIOD   2
  ------------------------------------------------------------------------------

     CUMULATIVE VOLUMES      L**3       RATES FOR THIS TIME STEP      L**3/T
     ------------------                 ------------------------

           IN:                                      IN:
           ---                                      ---
             STORAGE =           0.0000               STORAGE =           0.0000
       CONSTANT HEAD =           0.0000         CONSTANT HEAD =           0.0000
               WELLS =           0.0000                 WELLS =           0.0000
     HEAD DEP BOUNDS =       62591.2188       HEAD DEP BOUNDS =         749.5786

            TOTAL IN =       62591.2188              TOTAL IN =         749.5786

          OUT:                                     OUT:
          ----                                     ----
             STORAGE =       15000.2754               STORAGE =           0.1182
       CONSTANT HEAD =           0.0000         CONSTANT HEAD =           0.0000
               WELLS =           0.0000                 WELLS =           0.0000
     HEAD DEP BOUNDS =       47592.9453       HEAD DEP BOUNDS =         749.5283

           TOTAL OUT =       62593.2188             TOTAL OUT =         749.6465

            IN - OUT =          -2.0000              IN - OUT =      -6.7932E-02

 PERCENT DISCREPANCY =          -0.00     PERCENT DISCREPANCY =          -0.01






         TIME SUMMARY AT END OF TIME STEP   68 IN STRESS PERIOD    2
                    SECONDS     MINUTES      HOURS       DAYS        YEARS
                    -----------------------------------------------------------
   TIME STEP LENGTH  86400.      1440.0      24.000      1.0000     2.73785E-03
 STRESS PERIOD TIME 5.87520E+06  97920.      1632.0      68.000     0.18617    
         TOTAL TIME 5.96160E+06  99360.      1656.0      69.000     0.18891    
1
 
 SOLVING FOR HEAD 

 OUTPUT CONTROL FOR STRESS PERIOD    2   TIME STEP   69
    SAVE HEAD FOR ALL LAYERS
    SAVE DRAWDOWN FOR ALL LAYERS
    SAVE BUDGET
    PRINT HEAD FOR ALL LAYERS
    PRINT BUDGET
 UBDSV1 SAVING "         STORAGE" ON UNIT  53 AT TIME STEP 69, STRESS PERIOD   2
 UBDSV2 SAVING "   CONSTANT HEAD" ON UNIT  53 AT TIME STEP 69, STRESS PERIOD   2
 UBDSV1 SAVING "FLOW RIGHT FACE " ON UNIT  53 AT TIME STEP 69, STRESS PERIOD   2
 UBDSV1 SAVING "FLOW FRONT FACE " ON UNIT  53 AT TIME STEP 69, STRESS PERIOD   2
 UBDSV1 SAVING "FLOW LOWER FACE " ON UNIT  53 AT TIME STEP 69, STRESS PERIOD   2
1
              HEAD IN LAYER   1 AT END OF TIME STEP  69 IN STRESS PERIOD    2
  ---------------------------------------------------------------------------

            1           2           3           4           5
 ............................................................
   1    9.998       7.499       5.000       2.501      2.9981E-03
   2    9.998       7.499       5.000       2.501      2.9981E-03
   3    9.998       7.499       5.000       2.501      2.9981E-03
   4    9.998       7.499       5.000       2.501      2.9981E-03
   5    9.998       7.499       5.000       2.501      2.9981E-03
1
              HEAD IN LAYER   2 AT END OF TIME STEP  69 IN STRESS PERIOD    2
  ---------------------------------------------------------------------------

            1           2           3           4           5
 ............................................................
   1    9.998       7.499       5.000       2.501      2.9981E-03
   2    9.998       7.499       5.000       2.501      2.9981E-03
   3    9.998       7.499       5.000       2.501      2.9981E-03
   4    9.998       7.499       5.000       2.501      2.9981E-03
   5    9.998       7.499       5.000       2.501      2.9981E-03
1
              HEAD IN LAYER   3 AT END OF TIME STEP  69 IN STRESS PERIOD    2
  ---------------------------------------------------------------------------

            1           2           3           4           5
 ............................................................
   1    9.998       7.499       5.000       2.501      2.9981E-03
   2    9.998       7.499       5.000       2.501      2.9981E-03
   3    9.998       7.499       5.000       2.501      2.9981E-03
   4    9.998       7.499       5.000       2.501      2.9981E-03
   5    9.998       7.499       5.000       2.501      2.9981E-03
1
              HEAD IN LAYER   4 AT END OF TIME STEP  69 IN STRESS PERIOD    2
  ---------------------------------------------------------------------------

            1           2           3           4           5
 ............................................................
   1    9.998       7.499       5.000       2.501      2.9981E-03
   2    9.998       7.499       5.000       2.501      2.9981E-03
   3    9.998       7.499       5.000       2.501      2.9981E-03
   4    9.998       7.499       5.000       2.501      2.9981E-03
   5    9.998       7.499       5.000       2.501      2.9981E-03
1
              HEAD IN LAYER   5 AT END OF TIME STEP  69 IN STRESS PERIOD    2
  ---------------------------------------------------------------------------

            1           2           3           4           5
 ............................................................
   1    9.998       7.499       5.000       2.501      2.9981E-03
   2    9.998       7.499       5.000       2.501      2.9981E-03
   3    9.998       7.499       5.000       2.501      2.9981E-03
   4    9.998       7.499       5.000       2.501      2.9981E-03
   5    9.998       7.499       5.000       2.501      2.9981E-03

 HEAD WILL BE SAVED ON UNIT   51 AT END OF TIME STEP   69, STRESS PERIOD    2

 DRAWDOWN WILL BE SAVED ON UNIT   52 AT END OF TIME STEP   69, STRESS PERIOD    2
1
  VOLUMETRIC BUDGET FOR ENTIRE MODEL AT END OF TIME STEP   69, STRESS PERIOD   2
  ------------------------------------------------------------------------------

     CUMULATIVE VOLUMES      L**3       RATES FOR THIS TIME STEP      L**3/T
     ------------------                 ------------------------

           IN:                                      IN:
           ---                                      ---
             STORAGE =           0.0000               STORAGE =           0.0000
       CONSTANT HEAD =           0.0000         CONSTANT HEAD =           0.0000
               WELLS =           0.0000                 WELLS =           0.0000
     HEAD DEP BOUNDS =       63340.7891       HEAD DEP BOUNDS =         749.5710

            TOTAL IN =       63340.7891              TOTAL IN =         749.5710

          OUT:                                     OUT:
          ----                                     ----
             STORAGE =       15000.3799               STORAGE =           0.1045
       CONSTANT HEAD =           0.0000         CONSTANT HEAD =           0.0000
               WELLS =           0.0000                 WELLS =           0.0000
     HEAD DEP BOUNDS =       48342.4805       HEAD DEP BOUNDS =         749.5359

           TOTAL OUT =       63342.8594             TOTAL OUT =         749.6404

            IN - OUT =          -2.0703              IN - OUT =      -6.9397E-02

 PERCENT DISCREPANCY =          -0.00     PERCENT DISCREPANCY =          -0.01






         TIME SUMMARY AT END OF TIME STEP   69 IN STRESS PERIOD    2
                    SECONDS     MINUTES      HOURS       DAYS        YEARS
                    -----------------------------------------------------------
   TIME STEP LENGTH  86400.      1440.0      24.000      1.0000     2.73785E-03
 STRESS PERIOD TIME 5.96160E+06  99360.      1656.0      69.000     0.18891    
         TOTAL TIME 6.04800E+06 1.00800E+05  1680.0      70.000     0.19165    
1
 
 SOLVING FOR HEAD 

 OUTPUT CONTROL FOR STRESS PERIOD    2   TIME STEP   70
    SAVE HEAD FOR ALL LAYERS
    SAVE DRAWDOWN FOR ALL LAYERS
    SAVE BUDGET
    PRINT HEAD FOR ALL LAYERS
    PRINT BUDGET
 UBDSV1 SAVING "         STORAGE" ON UNIT  53 AT TIME STEP 70, STRESS PERIOD   2
 UBDSV2 SAVING "   CONSTANT HEAD" ON UNIT  53 AT TIME STEP 70, STRESS PERIOD   2
 UBDSV1 SAVING "FLOW RIGHT FACE " ON UNIT  53 AT TIME STEP 70, STRESS PERIOD   2
 UBDSV1 SAVING "FLOW FRONT FACE " ON UNIT  53 AT TIME STEP 70, STRESS PERIOD   2
 UBDSV1 SAVING "FLOW LOWER FACE " ON UNIT  53 AT TIME STEP 70, STRESS PERIOD   2
1
              HEAD IN LAYER   1 AT END OF TIME STEP  70 IN STRESS PERIOD    2
  ---------------------------------------------------------------------------

            1           2           3           4           5
 ............................................................
   1    9.998       7.499       5.000       2.501      2.9982E-03
   2    9.998       7.499       5.000       2.501      2.9982E-03
   3    9.998       7.499       5.000       2.501      2.9982E-03
   4    9.998       7.499       5.000       2.501      2.9982E-03
   5    9.998       7.499       5.000       2.501      2.9982E-03
1
              HEAD IN LAYER   2 AT END OF TIME STEP  70 IN STRESS PERIOD    2
  ---------------------------------------------------------------------------

            1           2           3           4           5
 ............................................................
   1    9.998       7.499       5.000       2.501      2.9982E-03
   2    9.998       7.499       5.000       2.501      2.9982E-03
   3    9.998       7.499       5.000       2.501      2.9982E-03
   4    9.998       7.499       5.000       2.501      2.9982E-03
   5    9.998       7.499       5.000       2.501      2.9982E-03
1
              HEAD IN LAYER   3 AT END OF TIME STEP  70 IN STRESS PERIOD    2
  ---------------------------------------------------------------------------

            1           2           3           4           5
 ............................................................
   1    9.998       7.499       5.000       2.501      2.9982E-03
   2    9.998       7.499       5.000       2.501      2.9982E-03
   3    9.998       7.499       5.000       2.501      2.9982E-03
   4    9.998       7.499       5.000       2.501      2.9982E-03
   5    9.998       7.499       5.000       2.501      2.9982E-03
1
              HEAD IN LAYER   4 AT END OF TIME STEP  70 IN STRESS PERIOD    2
  ---------------------------------------------------------------------------

            1           2           3           4           5
 ............................................................
   1    9.998       7.499       5.000       2.501      2.9982E-03
   2    9.998       7.499       5.000       2.501      2.9982E-03
   3    9.998       7.499       5.000       2.501      2.9982E-03
   4    9.998       7.499       5.000       2.501      2.9982E-03
   5    9.998       7.499       5.000       2.501      2.9982E-03
1
              HEAD IN LAYER   5 AT END OF TIME STEP  70 IN STRESS PERIOD    2
  ---------------------------------------------------------------------------

            1           2           3           4           5
 ............................................................
   1    9.998       7.499       5.000       2.501      2.9982E-03
   2    9.998       7.499       5.000       2.501      2.9982E-03
   3    9.998       7.499       5.000       2.501      2.9982E-03
   4    9.998       7.499       5.000       2.501      2.9982E-03
   5    9.998       7.499       5.000       2.501      2.9982E-03

 HEAD WILL BE SAVED ON UNIT   51 AT END OF TIME STEP   70, STRESS PERIOD    2

 DRAWDOWN WILL BE SAVED ON UNIT   52 AT END OF TIME STEP   70, STRESS PERIOD    2
1
  VOLUMETRIC BUDGET FOR ENTIRE MODEL AT END OF TIME STEP   70, STRESS PERIOD   2
  ------------------------------------------------------------------------------

     CUMULATIVE VOLUMES      L**3       RATES FOR THIS TIME STEP      L**3/T
     ------------------                 ------------------------

           IN:                                      IN:
           ---                                      ---
             STORAGE =           0.0000               STORAGE =           0.0000
       CONSTANT HEAD =           0.0000         CONSTANT HEAD =           0.0000
               WELLS =           0.0000                 WELLS =           0.0000
     HEAD DEP BOUNDS =       64090.3516       HEAD DEP BOUNDS =         749.5643

            TOTAL IN =       64090.3516              TOTAL IN =         749.5643

          OUT:                                     OUT:
          ----                                     ----
             STORAGE =       15000.4697               STORAGE =       8.9868E-02
       CONSTANT HEAD =           0.0000         CONSTANT HEAD =           0.0000
               WELLS =           0.0000                 WELLS =           0.0000
     HEAD DEP BOUNDS =       49092.0234       HEAD DEP BOUNDS =         749.5425

           TOTAL OUT =       64092.4922             TOTAL OUT =         749.6323

            IN - OUT =          -2.1406              IN - OUT =      -6.7993E-02

 PERCENT DISCREPANCY =          -0.00     PERCENT DISCREPANCY =          -0.01






         TIME SUMMARY AT END OF TIME STEP   70 IN STRESS PERIOD    2
                    SECONDS     MINUTES      HOURS       DAYS        YEARS
                    -----------------------------------------------------------
   TIME STEP LENGTH  86400.      1440.0      24.000      1.0000     2.73785E-03
 STRESS PERIOD TIME 6.04800E+06 1.00800E+05  1680.0      70.000     0.19165    
         TOTAL TIME 6.13440E+06 1.02240E+05  1704.0      71.000     0.19439    
1
 
 SOLVING FOR HEAD 

 OUTPUT CONTROL FOR STRESS PERIOD    2   TIME STEP   71
    SAVE HEAD FOR ALL LAYERS
    SAVE DRAWDOWN FOR ALL LAYERS
    SAVE BUDGET
    PRINT HEAD FOR ALL LAYERS
    PRINT BUDGET
 UBDSV1 SAVING "         STORAGE" ON UNIT  53 AT TIME STEP 71, STRESS PERIOD   2
 UBDSV2 SAVING "   CONSTANT HEAD" ON UNIT  53 AT TIME STEP 71, STRESS PERIOD   2
 UBDSV1 SAVING "FLOW RIGHT FACE " ON UNIT  53 AT TIME STEP 71, STRESS PERIOD   2
 UBDSV1 SAVING "FLOW FRONT FACE " ON UNIT  53 AT TIME STEP 71, STRESS PERIOD   2
 UBDSV1 SAVING "FLOW LOWER FACE " ON UNIT  53 AT TIME STEP 71, STRESS PERIOD   2
1
              HEAD IN LAYER   1 AT END OF TIME STEP  71 IN STRESS PERIOD    2
  ---------------------------------------------------------------------------

            1           2           3           4           5
 ............................................................
   1    9.998       7.499       5.000       2.501      2.9982E-03
   2    9.998       7.499       5.000       2.501      2.9982E-03
   3    9.998       7.499       5.000       2.501      2.9982E-03
   4    9.998       7.499       5.000       2.501      2.9982E-03
   5    9.998       7.499       5.000       2.501      2.9982E-03
1
              HEAD IN LAYER   2 AT END OF TIME STEP  71 IN STRESS PERIOD    2
  ---------------------------------------------------------------------------

            1           2           3           4           5
 ............................................................
   1    9.998       7.499       5.000       2.501      2.9982E-03
   2    9.998       7.499       5.000       2.501      2.9982E-03
   3    9.998       7.499       5.000       2.501      2.9982E-03
   4    9.998       7.499       5.000       2.501      2.9982E-03
   5    9.998       7.499       5.000       2.501      2.9982E-03
1
              HEAD IN LAYER   3 AT END OF TIME STEP  71 IN STRESS PERIOD    2
  ---------------------------------------------------------------------------

            1           2           3           4           5
 ............................................................
   1    9.998       7.499       5.000       2.501      2.9982E-03
   2    9.998       7.499       5.000       2.501      2.9982E-03
   3    9.998       7.499       5.000       2.501      2.9982E-03
   4    9.998       7.499       5.000       2.501      2.9982E-03
   5    9.998       7.499       5.000       2.501      2.9982E-03
1
              HEAD IN LAYER   4 AT END OF TIME STEP  71 IN STRESS PERIOD    2
  ---------------------------------------------------------------------------

            1           2           3           4           5
 ............................................................
   1    9.998       7.499       5.000       2.501      2.9982E-03
   2    9.998       7.499       5.000       2.501      2.9982E-03
   3    9.998       7.499       5.000       2.501      2.9982E-03
   4    9.998       7.499       5.000       2.501      2.9982E-03
   5    9.998       7.499       5.000       2.501      2.9982E-03
1
              HEAD IN LAYER   5 AT END OF TIME STEP  71 IN STRESS PERIOD    2
  ---------------------------------------------------------------------------

            1           2           3           4           5
 ............................................................
   1    9.998       7.499       5.000       2.501      2.9982E-03
   2    9.998       7.499       5.000       2.501      2.9982E-03
   3    9.998       7.499       5.000       2.501      2.9982E-03
   4    9.998       7.499       5.000       2.501      2.9982E-03
   5    9.998       7.499       5.000       2.501      2.9982E-03

 HEAD WILL BE SAVED ON UNIT   51 AT END OF TIME STEP   71, STRESS PERIOD    2

 DRAWDOWN WILL BE SAVED ON UNIT   52 AT END OF TIME STEP   71, STRESS PERIOD    2
1
  VOLUMETRIC BUDGET FOR ENTIRE MODEL AT END OF TIME STEP   71, STRESS PERIOD   2
  ------------------------------------------------------------------------------

     CUMULATIVE VOLUMES      L**3       RATES FOR THIS TIME STEP      L**3/T
     ------------------                 ------------------------

           IN:                                      IN:
           ---                                      ---
             STORAGE =           0.0000               STORAGE =           0.0000
       CONSTANT HEAD =           0.0000         CONSTANT HEAD =           0.0000
               WELLS =           0.0000                 WELLS =           0.0000
     HEAD DEP BOUNDS =       64839.9102       HEAD DEP BOUNDS =         749.5587

            TOTAL IN =       64839.9102              TOTAL IN =         749.5587

          OUT:                                     OUT:
          ----                                     ----
             STORAGE =       15000.5488               STORAGE =       7.8706E-02
       CONSTANT HEAD =           0.0000         CONSTANT HEAD =           0.0000
               WELLS =           0.0000                 WELLS =           0.0000
     HEAD DEP BOUNDS =       49841.5703       HEAD DEP BOUNDS =         749.5482

           TOTAL OUT =       64842.1172             TOTAL OUT =         749.6270

            IN - OUT =          -2.2070              IN - OUT =      -6.8237E-02

 PERCENT DISCREPANCY =          -0.00     PERCENT DISCREPANCY =          -0.01






         TIME SUMMARY AT END OF TIME STEP   71 IN STRESS PERIOD    2
                    SECONDS     MINUTES      HOURS       DAYS        YEARS
                    -----------------------------------------------------------
   TIME STEP LENGTH  86400.      1440.0      24.000      1.0000     2.73785E-03
 STRESS PERIOD TIME 6.13440E+06 1.02240E+05  1704.0      71.000     0.19439    
         TOTAL TIME 6.22080E+06 1.03680E+05  1728.0      72.000     0.19713    
1
 
 SOLVING FOR HEAD 

 OUTPUT CONTROL FOR STRESS PERIOD    2   TIME STEP   72
    SAVE HEAD FOR ALL LAYERS
    SAVE DRAWDOWN FOR ALL LAYERS
    SAVE BUDGET
    PRINT HEAD FOR ALL LAYERS
    PRINT BUDGET
 UBDSV1 SAVING "         STORAGE" ON UNIT  53 AT TIME STEP 72, STRESS PERIOD   2
 UBDSV2 SAVING "   CONSTANT HEAD" ON UNIT  53 AT TIME STEP 72, STRESS PERIOD   2
 UBDSV1 SAVING "FLOW RIGHT FACE " ON UNIT  53 AT TIME STEP 72, STRESS PERIOD   2
 UBDSV1 SAVING "FLOW FRONT FACE " ON UNIT  53 AT TIME STEP 72, STRESS PERIOD   2
 UBDSV1 SAVING "FLOW LOWER FACE " ON UNIT  53 AT TIME STEP 72, STRESS PERIOD   2
1
              HEAD IN LAYER   1 AT END OF TIME STEP  72 IN STRESS PERIOD    2
  ---------------------------------------------------------------------------

            1           2           3           4           5
 ............................................................
   1    9.998       7.499       5.000       2.502      2.9982E-03
   2    9.998       7.499       5.000       2.502      2.9982E-03
   3    9.998       7.499       5.000       2.502      2.9982E-03
   4    9.998       7.499       5.000       2.502      2.9982E-03
   5    9.998       7.499       5.000       2.502      2.9982E-03
1
              HEAD IN LAYER   2 AT END OF TIME STEP  72 IN STRESS PERIOD    2
  ---------------------------------------------------------------------------

            1           2           3           4           5
 ............................................................
   1    9.998       7.499       5.000       2.502      2.9982E-03
   2    9.998       7.499       5.000       2.502      2.9982E-03
   3    9.998       7.499       5.000       2.502      2.9982E-03
   4    9.998       7.499       5.000       2.502      2.9982E-03
   5    9.998       7.499       5.000       2.502      2.9982E-03
1
              HEAD IN LAYER   3 AT END OF TIME STEP  72 IN STRESS PERIOD    2
  ---------------------------------------------------------------------------

            1           2           3           4           5
 ............................................................
   1    9.998       7.499       5.000       2.502      2.9982E-03
   2    9.998       7.499       5.000       2.502      2.9982E-03
   3    9.998       7.499       5.000       2.502      2.9982E-03
   4    9.998       7.499       5.000       2.502      2.9982E-03
   5    9.998       7.499       5.000       2.502      2.9982E-03
1
              HEAD IN LAYER   4 AT END OF TIME STEP  72 IN STRESS PERIOD    2
  ---------------------------------------------------------------------------

            1           2           3           4           5
 ............................................................
   1    9.998       7.499       5.000       2.502      2.9982E-03
   2    9.998       7.499       5.000       2.502      2.9982E-03
   3    9.998       7.499       5.000       2.502      2.9982E-03
   4    9.998       7.499       5.000       2.502      2.9982E-03
   5    9.998       7.499       5.000       2.502      2.9982E-03
1
              HEAD IN LAYER   5 AT END OF TIME STEP  72 IN STRESS PERIOD    2
  ---------------------------------------------------------------------------

            1           2           3           4           5
 ............................................................
   1    9.998       7.499       5.000       2.502      2.9982E-03
   2    9.998       7.499       5.000       2.502      2.9982E-03
   3    9.998       7.499       5.000       2.502      2.9982E-03
   4    9.998       7.499       5.000       2.502      2.9982E-03
   5    9.998       7.499       5.000       2.502      2.9982E-03

 HEAD WILL BE SAVED ON UNIT   51 AT END OF TIME STEP   72, STRESS PERIOD    2

 DRAWDOWN WILL BE SAVED ON UNIT   52 AT END OF TIME STEP   72, STRESS PERIOD    2
1
  VOLUMETRIC BUDGET FOR ENTIRE MODEL AT END OF TIME STEP   72, STRESS PERIOD   2
  ------------------------------------------------------------------------------

     CUMULATIVE VOLUMES      L**3       RATES FOR THIS TIME STEP      L**3/T
     ------------------                 ------------------------

           IN:                                      IN:
           ---                                      ---
             STORAGE =           0.0000               STORAGE =           0.0000
       CONSTANT HEAD =           0.0000         CONSTANT HEAD =           0.0000
               WELLS =           0.0000                 WELLS =           0.0000
     HEAD DEP BOUNDS =       65589.4609       HEAD DEP BOUNDS =         749.5537

            TOTAL IN =       65589.4609              TOTAL IN =         749.5537

          OUT:                                     OUT:
          ----                                     ----
             STORAGE =       15000.6172               STORAGE =       6.8689E-02
       CONSTANT HEAD =           0.0000         CONSTANT HEAD =           0.0000
               WELLS =           0.0000                 WELLS =           0.0000
     HEAD DEP BOUNDS =       50591.1250       HEAD DEP BOUNDS =         749.5533

           TOTAL OUT =       65591.7422             TOTAL OUT =         749.6219

            IN - OUT =          -2.2812              IN - OUT =      -6.8237E-02

 PERCENT DISCREPANCY =          -0.00     PERCENT DISCREPANCY =          -0.01






         TIME SUMMARY AT END OF TIME STEP   72 IN STRESS PERIOD    2
                    SECONDS     MINUTES      HOURS       DAYS        YEARS
                    -----------------------------------------------------------
   TIME STEP LENGTH  86400.      1440.0      24.000      1.0000     2.73785E-03
 STRESS PERIOD TIME 6.22080E+06 1.03680E+05  1728.0      72.000     0.19713    
         TOTAL TIME 6.30720E+06 1.05120E+05  1752.0      73.000     0.19986    
1
 
 SOLVING FOR HEAD 

 OUTPUT CONTROL FOR STRESS PERIOD    2   TIME STEP   73
    SAVE HEAD FOR ALL LAYERS
    SAVE DRAWDOWN FOR ALL LAYERS
    SAVE BUDGET
    PRINT HEAD FOR ALL LAYERS
    PRINT BUDGET
 UBDSV1 SAVING "         STORAGE" ON UNIT  53 AT TIME STEP 73, STRESS PERIOD   2
 UBDSV2 SAVING "   CONSTANT HEAD" ON UNIT  53 AT TIME STEP 73, STRESS PERIOD   2
 UBDSV1 SAVING "FLOW RIGHT FACE " ON UNIT  53 AT TIME STEP 73, STRESS PERIOD   2
 UBDSV1 SAVING "FLOW FRONT FACE " ON UNIT  53 AT TIME STEP 73, STRESS PERIOD   2
 UBDSV1 SAVING "FLOW LOWER FACE " ON UNIT  53 AT TIME STEP 73, STRESS PERIOD   2
1
              HEAD IN LAYER   1 AT END OF TIME STEP  73 IN STRESS PERIOD    2
  ---------------------------------------------------------------------------

            1           2           3           4           5
 ............................................................
   1    9.998       7.499       5.000       2.502      2.9982E-03
   2    9.998       7.499       5.000       2.502      2.9982E-03
   3    9.998       7.499       5.000       2.502      2.9982E-03
   4    9.998       7.499       5.000       2.502      2.9982E-03
   5    9.998       7.499       5.000       2.502      2.9982E-03
1
              HEAD IN LAYER   2 AT END OF TIME STEP  73 IN STRESS PERIOD    2
  ---------------------------------------------------------------------------

            1           2           3           4           5
 ............................................................
   1    9.998       7.499       5.000       2.502      2.9982E-03
   2    9.998       7.499       5.000       2.502      2.9982E-03
   3    9.998       7.499       5.000       2.502      2.9982E-03
   4    9.998       7.499       5.000       2.502      2.9982E-03
   5    9.998       7.499       5.000       2.502      2.9982E-03
1
              HEAD IN LAYER   3 AT END OF TIME STEP  73 IN STRESS PERIOD    2
  ---------------------------------------------------------------------------

            1           2           3           4           5
 ............................................................
   1    9.998       7.499       5.000       2.502      2.9982E-03
   2    9.998       7.499       5.000       2.502      2.9982E-03
   3    9.998       7.499       5.000       2.502      2.9982E-03
   4    9.998       7.499       5.000       2.502      2.9982E-03
   5    9.998       7.499       5.000       2.502      2.9982E-03
1
              HEAD IN LAYER   4 AT END OF TIME STEP  73 IN STRESS PERIOD    2
  ---------------------------------------------------------------------------

            1           2           3           4           5
 ............................................................
   1    9.998       7.499       5.000       2.502      2.9982E-03
   2    9.998       7.499       5.000       2.502      2.9982E-03
   3    9.998       7.499       5.000       2.502      2.9982E-03
   4    9.998       7.499       5.000       2.502      2.9982E-03
   5    9.998       7.499       5.000       2.502      2.9982E-03
1
              HEAD IN LAYER   5 AT END OF TIME STEP  73 IN STRESS PERIOD    2
  ---------------------------------------------------------------------------

            1           2           3           4           5
 ............................................................
   1    9.998       7.499       5.000       2.502      2.9982E-03
   2    9.998       7.499       5.000       2.502      2.9982E-03
   3    9.998       7.499       5.000       2.502      2.9982E-03
   4    9.998       7.499       5.000       2.502      2.9982E-03
   5    9.998       7.499       5.000       2.502      2.9982E-03

 HEAD WILL BE SAVED ON UNIT   51 AT END OF TIME STEP   73, STRESS PERIOD    2

 DRAWDOWN WILL BE SAVED ON UNIT   52 AT END OF TIME STEP   73, STRESS PERIOD    2
1
  VOLUMETRIC BUDGET FOR ENTIRE MODEL AT END OF TIME STEP   73, STRESS PERIOD   2
  ------------------------------------------------------------------------------

     CUMULATIVE VOLUMES      L**3       RATES FOR THIS TIME STEP      L**3/T
     ------------------                 ------------------------

           IN:                                      IN:
           ---                                      ---
             STORAGE =           0.0000               STORAGE =           0.0000
       CONSTANT HEAD =           0.0000         CONSTANT HEAD =           0.0000
               WELLS =           0.0000                 WELLS =           0.0000
     HEAD DEP BOUNDS =       66339.0078       HEAD DEP BOUNDS =         749.5493

            TOTAL IN =       66339.0078              TOTAL IN =         749.5493

          OUT:                                     OUT:
          ----                                     ----
             STORAGE =       15000.6777               STORAGE =       6.0103E-02
       CONSTANT HEAD =           0.0000         CONSTANT HEAD =           0.0000
               WELLS =           0.0000                 WELLS =           0.0000
     HEAD DEP BOUNDS =       51340.6836       HEAD DEP BOUNDS =         749.5577

           TOTAL OUT =       66341.3594             TOTAL OUT =         749.6178

            IN - OUT =          -2.3516              IN - OUT =      -6.8542E-02

 PERCENT DISCREPANCY =          -0.00     PERCENT DISCREPANCY =          -0.01






         TIME SUMMARY AT END OF TIME STEP   73 IN STRESS PERIOD    2
                    SECONDS     MINUTES      HOURS       DAYS        YEARS
                    -----------------------------------------------------------
   TIME STEP LENGTH  86400.      1440.0      24.000      1.0000     2.73785E-03
 STRESS PERIOD TIME 6.30720E+06 1.05120E+05  1752.0      73.000     0.19986    
         TOTAL TIME 6.39360E+06 1.06560E+05  1776.0      74.000     0.20260    
1
 
 SOLVING FOR HEAD 

 OUTPUT CONTROL FOR STRESS PERIOD    2   TIME STEP   74
    SAVE HEAD FOR ALL LAYERS
    SAVE DRAWDOWN FOR ALL LAYERS
    SAVE BUDGET
    PRINT HEAD FOR ALL LAYERS
    PRINT BUDGET
 UBDSV1 SAVING "         STORAGE" ON UNIT  53 AT TIME STEP 74, STRESS PERIOD   2
 UBDSV2 SAVING "   CONSTANT HEAD" ON UNIT  53 AT TIME STEP 74, STRESS PERIOD   2
 UBDSV1 SAVING "FLOW RIGHT FACE " ON UNIT  53 AT TIME STEP 74, STRESS PERIOD   2
 UBDSV1 SAVING "FLOW FRONT FACE " ON UNIT  53 AT TIME STEP 74, STRESS PERIOD   2
 UBDSV1 SAVING "FLOW LOWER FACE " ON UNIT  53 AT TIME STEP 74, STRESS PERIOD   2
1
              HEAD IN LAYER   1 AT END OF TIME STEP  74 IN STRESS PERIOD    2
  ---------------------------------------------------------------------------

            1           2           3           4           5
 ............................................................
   1    9.998       7.499       5.000       2.502      2.9982E-03
   2    9.998       7.499       5.000       2.502      2.9982E-03
   3    9.998       7.499       5.000       2.502      2.9982E-03
   4    9.998       7.499       5.000       2.502      2.9982E-03
   5    9.998       7.499       5.000       2.502      2.9982E-03
1
              HEAD IN LAYER   2 AT END OF TIME STEP  74 IN STRESS PERIOD    2
  ---------------------------------------------------------------------------

            1           2           3           4           5
 ............................................................
   1    9.998       7.499       5.000       2.502      2.9982E-03
   2    9.998       7.499       5.000       2.502      2.9982E-03
   3    9.998       7.499       5.000       2.502      2.9982E-03
   4    9.998       7.499       5.000       2.502      2.9982E-03
   5    9.998       7.499       5.000       2.502      2.9982E-03
1
              HEAD IN LAYER   3 AT END OF TIME STEP  74 IN STRESS PERIOD    2
  ---------------------------------------------------------------------------

            1           2           3           4           5
 ............................................................
   1    9.998       7.499       5.000       2.502      2.9982E-03
   2    9.998       7.499       5.000       2.502      2.9982E-03
   3    9.998       7.499       5.000       2.502      2.9982E-03
   4    9.998       7.499       5.000       2.502      2.9982E-03
   5    9.998       7.499       5.000       2.502      2.9982E-03
1
              HEAD IN LAYER   4 AT END OF TIME STEP  74 IN STRESS PERIOD    2
  ---------------------------------------------------------------------------

            1           2           3           4           5
 ............................................................
   1    9.998       7.499       5.000       2.502      2.9982E-03
   2    9.998       7.499       5.000       2.502      2.9982E-03
   3    9.998       7.499       5.000       2.502      2.9982E-03
   4    9.998       7.499       5.000       2.502      2.9982E-03
   5    9.998       7.499       5.000       2.502      2.9982E-03
1
              HEAD IN LAYER   5 AT END OF TIME STEP  74 IN STRESS PERIOD    2
  ---------------------------------------------------------------------------

            1           2           3           4           5
 ............................................................
   1    9.998       7.499       5.000       2.502      2.9982E-03
   2    9.998       7.499       5.000       2.502      2.9982E-03
   3    9.998       7.499       5.000       2.502      2.9982E-03
   4    9.998       7.499       5.000       2.502      2.9982E-03
   5    9.998       7.499       5.000       2.502      2.9982E-03

 HEAD WILL BE SAVED ON UNIT   51 AT END OF TIME STEP   74, STRESS PERIOD    2

 DRAWDOWN WILL BE SAVED ON UNIT   52 AT END OF TIME STEP   74, STRESS PERIOD    2
1
  VOLUMETRIC BUDGET FOR ENTIRE MODEL AT END OF TIME STEP   74, STRESS PERIOD   2
  ------------------------------------------------------------------------------

     CUMULATIVE VOLUMES      L**3       RATES FOR THIS TIME STEP      L**3/T
     ------------------                 ------------------------

           IN:                                      IN:
           ---                                      ---
             STORAGE =           0.0000               STORAGE =           0.0000
       CONSTANT HEAD =           0.0000         CONSTANT HEAD =           0.0000
               WELLS =           0.0000                 WELLS =           0.0000
     HEAD DEP BOUNDS =       67088.5547       HEAD DEP BOUNDS =         749.5455

            TOTAL IN =       67088.5547              TOTAL IN =         749.5455

          OUT:                                     OUT:
          ----                                     ----
             STORAGE =       15000.7305               STORAGE =       5.2558E-02
       CONSTANT HEAD =           0.0000         CONSTANT HEAD =           0.0000
               WELLS =           0.0000                 WELLS =           0.0000
     HEAD DEP BOUNDS =       52090.2461       HEAD DEP BOUNDS =         749.5615

           TOTAL OUT =       67090.9766             TOTAL OUT =         749.6141

            IN - OUT =          -2.4219              IN - OUT =      -6.8604E-02

 PERCENT DISCREPANCY =          -0.00     PERCENT DISCREPANCY =          -0.01






         TIME SUMMARY AT END OF TIME STEP   74 IN STRESS PERIOD    2
                    SECONDS     MINUTES      HOURS       DAYS        YEARS
                    -----------------------------------------------------------
   TIME STEP LENGTH  86400.      1440.0      24.000      1.0000     2.73785E-03
 STRESS PERIOD TIME 6.39360E+06 1.06560E+05  1776.0      74.000     0.20260    
         TOTAL TIME 6.48000E+06 1.08000E+05  1800.0      75.000     0.20534    
1
 
 SOLVING FOR HEAD 

 OUTPUT CONTROL FOR STRESS PERIOD    2   TIME STEP   75
    SAVE HEAD FOR ALL LAYERS
    SAVE DRAWDOWN FOR ALL LAYERS
    SAVE BUDGET
    PRINT HEAD FOR ALL LAYERS
    PRINT BUDGET
 UBDSV1 SAVING "         STORAGE" ON UNIT  53 AT TIME STEP 75, STRESS PERIOD   2
 UBDSV2 SAVING "   CONSTANT HEAD" ON UNIT  53 AT TIME STEP 75, STRESS PERIOD   2
 UBDSV1 SAVING "FLOW RIGHT FACE " ON UNIT  53 AT TIME STEP 75, STRESS PERIOD   2
 UBDSV1 SAVING "FLOW FRONT FACE " ON UNIT  53 AT TIME STEP 75, STRESS PERIOD   2
 UBDSV1 SAVING "FLOW LOWER FACE " ON UNIT  53 AT TIME STEP 75, STRESS PERIOD   2
1
              HEAD IN LAYER   1 AT END OF TIME STEP  75 IN STRESS PERIOD    2
  ---------------------------------------------------------------------------

            1           2           3           4           5
 ............................................................
   1    9.998       7.499       5.000       2.502      2.9983E-03
   2    9.998       7.499       5.000       2.502      2.9983E-03
   3    9.998       7.499       5.000       2.502      2.9983E-03
   4    9.998       7.499       5.000       2.502      2.9983E-03
   5    9.998       7.499       5.000       2.502      2.9983E-03
1
              HEAD IN LAYER   2 AT END OF TIME STEP  75 IN STRESS PERIOD    2
  ---------------------------------------------------------------------------

            1           2           3           4           5
 ............................................................
   1    9.998       7.499       5.000       2.502      2.9983E-03
   2    9.998       7.499       5.000       2.502      2.9983E-03
   3    9.998       7.499       5.000       2.502      2.9983E-03
   4    9.998       7.499       5.000       2.502      2.9983E-03
   5    9.998       7.499       5.000       2.502      2.9983E-03
1
              HEAD IN LAYER   3 AT END OF TIME STEP  75 IN STRESS PERIOD    2
  ---------------------------------------------------------------------------

            1           2           3           4           5
 ............................................................
   1    9.998       7.499       5.000       2.502      2.9983E-03
   2    9.998       7.499       5.000       2.502      2.9983E-03
   3    9.998       7.499       5.000       2.502      2.9983E-03
   4    9.998       7.499       5.000       2.502      2.9983E-03
   5    9.998       7.499       5.000       2.502      2.9983E-03
1
              HEAD IN LAYER   4 AT END OF TIME STEP  75 IN STRESS PERIOD    2
  ---------------------------------------------------------------------------

            1           2           3           4           5
 ............................................................
   1    9.998       7.499       5.000       2.502      2.9983E-03
   2    9.998       7.499       5.000       2.502      2.9983E-03
   3    9.998       7.499       5.000       2.502      2.9983E-03
   4    9.998       7.499       5.000       2.502      2.9983E-03
   5    9.998       7.499       5.000       2.502      2.9983E-03
1
              HEAD IN LAYER   5 AT END OF TIME STEP  75 IN STRESS PERIOD    2
  ---------------------------------------------------------------------------

            1           2           3           4           5
 ............................................................
   1    9.998       7.499       5.000       2.502      2.9983E-03
   2    9.998       7.499       5.000       2.502      2.9983E-03
   3    9.998       7.499       5.000       2.502      2.9983E-03
   4    9.998       7.499       5.000       2.502      2.9983E-03
   5    9.998       7.499       5.000       2.502      2.9983E-03

 HEAD WILL BE SAVED ON UNIT   51 AT END OF TIME STEP   75, STRESS PERIOD    2

 DRAWDOWN WILL BE SAVED ON UNIT   52 AT END OF TIME STEP   75, STRESS PERIOD    2
1
  VOLUMETRIC BUDGET FOR ENTIRE MODEL AT END OF TIME STEP   75, STRESS PERIOD   2
  ------------------------------------------------------------------------------

     CUMULATIVE VOLUMES      L**3       RATES FOR THIS TIME STEP      L**3/T
     ------------------                 ------------------------

           IN:                                      IN:
           ---                                      ---
             STORAGE =           0.0000               STORAGE =           0.0000
       CONSTANT HEAD =           0.0000         CONSTANT HEAD =           0.0000
               WELLS =           0.0000                 WELLS =           0.0000
     HEAD DEP BOUNDS =       67838.0938       HEAD DEP BOUNDS =         749.5422

            TOTAL IN =       67838.0938              TOTAL IN =         749.5422

          OUT:                                     OUT:
          ----                                     ----
             STORAGE =       15000.7764               STORAGE =       4.5472E-02
       CONSTANT HEAD =           0.0000         CONSTANT HEAD =           0.0000
               WELLS =           0.0000                 WELLS =           0.0000
     HEAD DEP BOUNDS =       52839.8125       HEAD DEP BOUNDS =         749.5649

           TOTAL OUT =       67840.5859             TOTAL OUT =         749.6104

            IN - OUT =          -2.4922              IN - OUT =      -6.8176E-02

 PERCENT DISCREPANCY =          -0.00     PERCENT DISCREPANCY =          -0.01






         TIME SUMMARY AT END OF TIME STEP   75 IN STRESS PERIOD    2
                    SECONDS     MINUTES      HOURS       DAYS        YEARS
                    -----------------------------------------------------------
   TIME STEP LENGTH  86400.      1440.0      24.000      1.0000     2.73785E-03
 STRESS PERIOD TIME 6.48000E+06 1.08000E+05  1800.0      75.000     0.20534    
         TOTAL TIME 6.56640E+06 1.09440E+05  1824.0      76.000     0.20808    
1
 
 SOLVING FOR HEAD 

 OUTPUT CONTROL FOR STRESS PERIOD    2   TIME STEP   76
    SAVE HEAD FOR ALL LAYERS
    SAVE DRAWDOWN FOR ALL LAYERS
    SAVE BUDGET
    PRINT HEAD FOR ALL LAYERS
    PRINT BUDGET
 UBDSV1 SAVING "         STORAGE" ON UNIT  53 AT TIME STEP 76, STRESS PERIOD   2
 UBDSV2 SAVING "   CONSTANT HEAD" ON UNIT  53 AT TIME STEP 76, STRESS PERIOD   2
 UBDSV1 SAVING "FLOW RIGHT FACE " ON UNIT  53 AT TIME STEP 76, STRESS PERIOD   2
 UBDSV1 SAVING "FLOW FRONT FACE " ON UNIT  53 AT TIME STEP 76, STRESS PERIOD   2
 UBDSV1 SAVING "FLOW LOWER FACE " ON UNIT  53 AT TIME STEP 76, STRESS PERIOD   2
1
              HEAD IN LAYER   1 AT END OF TIME STEP  76 IN STRESS PERIOD    2
  ---------------------------------------------------------------------------

            1           2           3           4           5
 ............................................................
   1    9.998       7.499       5.000       2.502      2.9983E-03
   2    9.998       7.499       5.000       2.502      2.9983E-03
   3    9.998       7.499       5.000       2.502      2.9983E-03
   4    9.998       7.499       5.000       2.502      2.9983E-03
   5    9.998       7.499       5.000       2.502      2.9983E-03
1
              HEAD IN LAYER   2 AT END OF TIME STEP  76 IN STRESS PERIOD    2
  ---------------------------------------------------------------------------

            1           2           3           4           5
 ............................................................
   1    9.998       7.499       5.000       2.502      2.9983E-03
   2    9.998       7.499       5.000       2.502      2.9983E-03
   3    9.998       7.499       5.000       2.502      2.9983E-03
   4    9.998       7.499       5.000       2.502      2.9983E-03
   5    9.998       7.499       5.000       2.502      2.9983E-03
1
              HEAD IN LAYER   3 AT END OF TIME STEP  76 IN STRESS PERIOD    2
  ---------------------------------------------------------------------------

            1           2           3           4           5
 ............................................................
   1    9.998       7.499       5.000       2.502      2.9983E-03
   2    9.998       7.499       5.000       2.502      2.9983E-03
   3    9.998       7.499       5.000       2.502      2.9983E-03
   4    9.998       7.499       5.000       2.502      2.9983E-03
   5    9.998       7.499       5.000       2.502      2.9983E-03
1
              HEAD IN LAYER   4 AT END OF TIME STEP  76 IN STRESS PERIOD    2
  ---------------------------------------------------------------------------

            1           2           3           4           5
 ............................................................
   1    9.998       7.499       5.000       2.502      2.9983E-03
   2    9.998       7.499       5.000       2.502      2.9983E-03
   3    9.998       7.499       5.000       2.502      2.9983E-03
   4    9.998       7.499       5.000       2.502      2.9983E-03
   5    9.998       7.499       5.000       2.502      2.9983E-03
1
              HEAD IN LAYER   5 AT END OF TIME STEP  76 IN STRESS PERIOD    2
  ---------------------------------------------------------------------------

            1           2           3           4           5
 ............................................................
   1    9.998       7.499       5.000       2.502      2.9983E-03
   2    9.998       7.499       5.000       2.502      2.9983E-03
   3    9.998       7.499       5.000       2.502      2.9983E-03
   4    9.998       7.499       5.000       2.502      2.9983E-03
   5    9.998       7.499       5.000       2.502      2.9983E-03

 HEAD WILL BE SAVED ON UNIT   51 AT END OF TIME STEP   76, STRESS PERIOD    2

 DRAWDOWN WILL BE SAVED ON UNIT   52 AT END OF TIME STEP   76, STRESS PERIOD    2
1
  VOLUMETRIC BUDGET FOR ENTIRE MODEL AT END OF TIME STEP   76, STRESS PERIOD   2
  ------------------------------------------------------------------------------

     CUMULATIVE VOLUMES      L**3       RATES FOR THIS TIME STEP      L**3/T
     ------------------                 ------------------------

           IN:                                      IN:
           ---                                      ---
             STORAGE =           0.0000               STORAGE =           0.0000
       CONSTANT HEAD =           0.0000         CONSTANT HEAD =           0.0000
               WELLS =           0.0000                 WELLS =           0.0000
     HEAD DEP BOUNDS =       68587.6328       HEAD DEP BOUNDS =         749.5392

            TOTAL IN =       68587.6328              TOTAL IN =         749.5392

          OUT:                                     OUT:
          ----                                     ----
             STORAGE =       15000.8164               STORAGE =       4.0320E-02
       CONSTANT HEAD =           0.0000         CONSTANT HEAD =           0.0000
               WELLS =           0.0000                 WELLS =           0.0000
     HEAD DEP BOUNDS =       53589.3789       HEAD DEP BOUNDS =         749.5678

           TOTAL OUT =       68590.1953             TOTAL OUT =         749.6082

            IN - OUT =          -2.5625              IN - OUT =      -6.8970E-02

 PERCENT DISCREPANCY =          -0.00     PERCENT DISCREPANCY =          -0.01






         TIME SUMMARY AT END OF TIME STEP   76 IN STRESS PERIOD    2
                    SECONDS     MINUTES      HOURS       DAYS        YEARS
                    -----------------------------------------------------------
   TIME STEP LENGTH  86400.      1440.0      24.000      1.0000     2.73785E-03
 STRESS PERIOD TIME 6.56640E+06 1.09440E+05  1824.0      76.000     0.20808    
         TOTAL TIME 6.65280E+06 1.10880E+05  1848.0      77.000     0.21081    
1
 
 SOLVING FOR HEAD 

 OUTPUT CONTROL FOR STRESS PERIOD    2   TIME STEP   77
    SAVE HEAD FOR ALL LAYERS
    SAVE DRAWDOWN FOR ALL LAYERS
    SAVE BUDGET
    PRINT HEAD FOR ALL LAYERS
    PRINT BUDGET
 UBDSV1 SAVING "         STORAGE" ON UNIT  53 AT TIME STEP 77, STRESS PERIOD   2
 UBDSV2 SAVING "   CONSTANT HEAD" ON UNIT  53 AT TIME STEP 77, STRESS PERIOD   2
 UBDSV1 SAVING "FLOW RIGHT FACE " ON UNIT  53 AT TIME STEP 77, STRESS PERIOD   2
 UBDSV1 SAVING "FLOW FRONT FACE " ON UNIT  53 AT TIME STEP 77, STRESS PERIOD   2
 UBDSV1 SAVING "FLOW LOWER FACE " ON UNIT  53 AT TIME STEP 77, STRESS PERIOD   2
1
              HEAD IN LAYER   1 AT END OF TIME STEP  77 IN STRESS PERIOD    2
  ---------------------------------------------------------------------------

            1           2           3           4           5
 ............................................................
   1    9.998       7.499       5.000       2.502      2.9983E-03
   2    9.998       7.499       5.000       2.502      2.9983E-03
   3    9.998       7.499       5.000       2.502      2.9983E-03
   4    9.998       7.499       5.000       2.502      2.9983E-03
   5    9.998       7.499       5.000       2.502      2.9983E-03
1
              HEAD IN LAYER   2 AT END OF TIME STEP  77 IN STRESS PERIOD    2
  ---------------------------------------------------------------------------

            1           2           3           4           5
 ............................................................
   1    9.998       7.499       5.000       2.502      2.9983E-03
   2    9.998       7.499       5.000       2.502      2.9983E-03
   3    9.998       7.499       5.000       2.502      2.9983E-03
   4    9.998       7.499       5.000       2.502      2.9983E-03
   5    9.998       7.499       5.000       2.502      2.9983E-03
1
              HEAD IN LAYER   3 AT END OF TIME STEP  77 IN STRESS PERIOD    2
  ---------------------------------------------------------------------------

            1           2           3           4           5
 ............................................................
   1    9.998       7.499       5.000       2.502      2.9983E-03
   2    9.998       7.499       5.000       2.502      2.9983E-03
   3    9.998       7.499       5.000       2.502      2.9983E-03
   4    9.998       7.499       5.000       2.502      2.9983E-03
   5    9.998       7.499       5.000       2.502      2.9983E-03
1
              HEAD IN LAYER   4 AT END OF TIME STEP  77 IN STRESS PERIOD    2
  ---------------------------------------------------------------------------

            1           2           3           4           5
 ............................................................
   1    9.998       7.499       5.000       2.502      2.9983E-03
   2    9.998       7.499       5.000       2.502      2.9983E-03
   3    9.998       7.499       5.000       2.502      2.9983E-03
   4    9.998       7.499       5.000       2.502      2.9983E-03
   5    9.998       7.499       5.000       2.502      2.9983E-03
1
              HEAD IN LAYER   5 AT END OF TIME STEP  77 IN STRESS PERIOD    2
  ---------------------------------------------------------------------------

            1           2           3           4           5
 ............................................................
   1    9.998       7.499       5.000       2.502      2.9983E-03
   2    9.998       7.499       5.000       2.502      2.9983E-03
   3    9.998       7.499       5.000       2.502      2.9983E-03
   4    9.998       7.499       5.000       2.502      2.9983E-03
   5    9.998       7.499       5.000       2.502      2.9983E-03

 HEAD WILL BE SAVED ON UNIT   51 AT END OF TIME STEP   77, STRESS PERIOD    2

 DRAWDOWN WILL BE SAVED ON UNIT   52 AT END OF TIME STEP   77, STRESS PERIOD    2
1
  VOLUMETRIC BUDGET FOR ENTIRE MODEL AT END OF TIME STEP   77, STRESS PERIOD   2
  ------------------------------------------------------------------------------

     CUMULATIVE VOLUMES      L**3       RATES FOR THIS TIME STEP      L**3/T
     ------------------                 ------------------------

           IN:                                      IN:
           ---                                      ---
             STORAGE =           0.0000               STORAGE =           0.0000
       CONSTANT HEAD =           0.0000         CONSTANT HEAD =           0.0000
               WELLS =           0.0000                 WELLS =           0.0000
     HEAD DEP BOUNDS =       69337.1719       HEAD DEP BOUNDS =         749.5367

            TOTAL IN =       69337.1719              TOTAL IN =         749.5367

          OUT:                                     OUT:
          ----                                     ----
             STORAGE =       15000.8506               STORAGE =       3.4230E-02
       CONSTANT HEAD =           0.0000         CONSTANT HEAD =           0.0000
               WELLS =           0.0000                 WELLS =           0.0000
     HEAD DEP BOUNDS =       54338.9492       HEAD DEP BOUNDS =         749.5704

           TOTAL OUT =       69339.7969             TOTAL OUT =         749.6046

            IN - OUT =          -2.6250              IN - OUT =      -6.7932E-02

 PERCENT DISCREPANCY =          -0.00     PERCENT DISCREPANCY =          -0.01






         TIME SUMMARY AT END OF TIME STEP   77 IN STRESS PERIOD    2
                    SECONDS     MINUTES      HOURS       DAYS        YEARS
                    -----------------------------------------------------------
   TIME STEP LENGTH  86400.      1440.0      24.000      1.0000     2.73785E-03
 STRESS PERIOD TIME 6.65280E+06 1.10880E+05  1848.0      77.000     0.21081    
         TOTAL TIME 6.73920E+06 1.12320E+05  1872.0      78.000     0.21355    
1
 
 SOLVING FOR HEAD 

 OUTPUT CONTROL FOR STRESS PERIOD    2   TIME STEP   78
    SAVE HEAD FOR ALL LAYERS
    SAVE DRAWDOWN FOR ALL LAYERS
    SAVE BUDGET
    PRINT HEAD FOR ALL LAYERS
    PRINT BUDGET
 UBDSV1 SAVING "         STORAGE" ON UNIT  53 AT TIME STEP 78, STRESS PERIOD   2
 UBDSV2 SAVING "   CONSTANT HEAD" ON UNIT  53 AT TIME STEP 78, STRESS PERIOD   2
 UBDSV1 SAVING "FLOW RIGHT FACE " ON UNIT  53 AT TIME STEP 78, STRESS PERIOD   2
 UBDSV1 SAVING "FLOW FRONT FACE " ON UNIT  53 AT TIME STEP 78, STRESS PERIOD   2
 UBDSV1 SAVING "FLOW LOWER FACE " ON UNIT  53 AT TIME STEP 78, STRESS PERIOD   2
1
              HEAD IN LAYER   1 AT END OF TIME STEP  78 IN STRESS PERIOD    2
  ---------------------------------------------------------------------------

            1           2           3           4           5
 ............................................................
   1    9.998       7.499       5.000       2.502      2.9983E-03
   2    9.998       7.499       5.000       2.502      2.9983E-03
   3    9.998       7.499       5.000       2.502      2.9983E-03
   4    9.998       7.499       5.000       2.502      2.9983E-03
   5    9.998       7.499       5.000       2.502      2.9983E-03
1
              HEAD IN LAYER   2 AT END OF TIME STEP  78 IN STRESS PERIOD    2
  ---------------------------------------------------------------------------

            1           2           3           4           5
 ............................................................
   1    9.998       7.499       5.000       2.502      2.9983E-03
   2    9.998       7.499       5.000       2.502      2.9983E-03
   3    9.998       7.499       5.000       2.502      2.9983E-03
   4    9.998       7.499       5.000       2.502      2.9983E-03
   5    9.998       7.499       5.000       2.502      2.9983E-03
1
              HEAD IN LAYER   3 AT END OF TIME STEP  78 IN STRESS PERIOD    2
  ---------------------------------------------------------------------------

            1           2           3           4           5
 ............................................................
   1    9.998       7.499       5.000       2.502      2.9983E-03
   2    9.998       7.499       5.000       2.502      2.9983E-03
   3    9.998       7.499       5.000       2.502      2.9983E-03
   4    9.998       7.499       5.000       2.502      2.9983E-03
   5    9.998       7.499       5.000       2.502      2.9983E-03
1
              HEAD IN LAYER   4 AT END OF TIME STEP  78 IN STRESS PERIOD    2
  ---------------------------------------------------------------------------

            1           2           3           4           5
 ............................................................
   1    9.998       7.499       5.000       2.502      2.9983E-03
   2    9.998       7.499       5.000       2.502      2.9983E-03
   3    9.998       7.499       5.000       2.502      2.9983E-03
   4    9.998       7.499       5.000       2.502      2.9983E-03
   5    9.998       7.499       5.000       2.502      2.9983E-03
1
              HEAD IN LAYER   5 AT END OF TIME STEP  78 IN STRESS PERIOD    2
  ---------------------------------------------------------------------------

            1           2           3           4           5
 ............................................................
   1    9.998       7.499       5.000       2.502      2.9983E-03
   2    9.998       7.499       5.000       2.502      2.9983E-03
   3    9.998       7.499       5.000       2.502      2.9983E-03
   4    9.998       7.499       5.000       2.502      2.9983E-03
   5    9.998       7.499       5.000       2.502      2.9983E-03

 HEAD WILL BE SAVED ON UNIT   51 AT END OF TIME STEP   78, STRESS PERIOD    2

 DRAWDOWN WILL BE SAVED ON UNIT   52 AT END OF TIME STEP   78, STRESS PERIOD    2
1
  VOLUMETRIC BUDGET FOR ENTIRE MODEL AT END OF TIME STEP   78, STRESS PERIOD   2
  ------------------------------------------------------------------------------

     CUMULATIVE VOLUMES      L**3       RATES FOR THIS TIME STEP      L**3/T
     ------------------                 ------------------------

           IN:                                      IN:
           ---                                      ---
             STORAGE =           0.0000               STORAGE =           0.0000
       CONSTANT HEAD =           0.0000         CONSTANT HEAD =           0.0000
               WELLS =           0.0000                 WELLS =           0.0000
     HEAD DEP BOUNDS =       70086.7031       HEAD DEP BOUNDS =         749.5345

            TOTAL IN =       70086.7031              TOTAL IN =         749.5345

          OUT:                                     OUT:
          ----                                     ----
             STORAGE =       15000.8809               STORAGE =       3.0624E-02
       CONSTANT HEAD =           0.0000         CONSTANT HEAD =           0.0000
               WELLS =           0.0000                 WELLS =           0.0000
     HEAD DEP BOUNDS =       55088.5234       HEAD DEP BOUNDS =         749.5726

           TOTAL OUT =       70089.4062             TOTAL OUT =         749.6032

            IN - OUT =          -2.7031              IN - OUT =      -6.8665E-02

 PERCENT DISCREPANCY =          -0.00     PERCENT DISCREPANCY =          -0.01






         TIME SUMMARY AT END OF TIME STEP   78 IN STRESS PERIOD    2
                    SECONDS     MINUTES      HOURS       DAYS        YEARS
                    -----------------------------------------------------------
   TIME STEP LENGTH  86400.      1440.0      24.000      1.0000     2.73785E-03
 STRESS PERIOD TIME 6.73920E+06 1.12320E+05  1872.0      78.000     0.21355    
         TOTAL TIME 6.82560E+06 1.13760E+05  1896.0      79.000     0.21629    
1
 
 SOLVING FOR HEAD 

 OUTPUT CONTROL FOR STRESS PERIOD    2   TIME STEP   79
    SAVE HEAD FOR ALL LAYERS
    SAVE DRAWDOWN FOR ALL LAYERS
    SAVE BUDGET
    PRINT HEAD FOR ALL LAYERS
    PRINT BUDGET
 UBDSV1 SAVING "         STORAGE" ON UNIT  53 AT TIME STEP 79, STRESS PERIOD   2
 UBDSV2 SAVING "   CONSTANT HEAD" ON UNIT  53 AT TIME STEP 79, STRESS PERIOD   2
 UBDSV1 SAVING "FLOW RIGHT FACE " ON UNIT  53 AT TIME STEP 79, STRESS PERIOD   2
 UBDSV1 SAVING "FLOW FRONT FACE " ON UNIT  53 AT TIME STEP 79, STRESS PERIOD   2
 UBDSV1 SAVING "FLOW LOWER FACE " ON UNIT  53 AT TIME STEP 79, STRESS PERIOD   2
1
              HEAD IN LAYER   1 AT END OF TIME STEP  79 IN STRESS PERIOD    2
  ---------------------------------------------------------------------------

            1           2           3           4           5
 ............................................................
   1    9.998       7.499       5.000       2.502      2.9983E-03
   2    9.998       7.499       5.000       2.502      2.9983E-03
   3    9.998       7.499       5.000       2.502      2.9983E-03
   4    9.998       7.499       5.000       2.502      2.9983E-03
   5    9.998       7.499       5.000       2.502      2.9983E-03
1
              HEAD IN LAYER   2 AT END OF TIME STEP  79 IN STRESS PERIOD    2
  ---------------------------------------------------------------------------

            1           2           3           4           5
 ............................................................
   1    9.998       7.499       5.000       2.502      2.9983E-03
   2    9.998       7.499       5.000       2.502      2.9983E-03
   3    9.998       7.499       5.000       2.502      2.9983E-03
   4    9.998       7.499       5.000       2.502      2.9983E-03
   5    9.998       7.499       5.000       2.502      2.9983E-03
1
              HEAD IN LAYER   3 AT END OF TIME STEP  79 IN STRESS PERIOD    2
  ---------------------------------------------------------------------------

            1           2           3           4           5
 ............................................................
   1    9.998       7.499       5.000       2.502      2.9983E-03
   2    9.998       7.499       5.000       2.502      2.9983E-03
   3    9.998       7.499       5.000       2.502      2.9983E-03
   4    9.998       7.499       5.000       2.502      2.9983E-03
   5    9.998       7.499       5.000       2.502      2.9983E-03
1
              HEAD IN LAYER   4 AT END OF TIME STEP  79 IN STRESS PERIOD    2
  ---------------------------------------------------------------------------

            1           2           3           4           5
 ............................................................
   1    9.998       7.499       5.000       2.502      2.9983E-03
   2    9.998       7.499       5.000       2.502      2.9983E-03
   3    9.998       7.499       5.000       2.502      2.9983E-03
   4    9.998       7.499       5.000       2.502      2.9983E-03
   5    9.998       7.499       5.000       2.502      2.9983E-03
1
              HEAD IN LAYER   5 AT END OF TIME STEP  79 IN STRESS PERIOD    2
  ---------------------------------------------------------------------------

            1           2           3           4           5
 ............................................................
   1    9.998       7.499       5.000       2.502      2.9983E-03
   2    9.998       7.499       5.000       2.502      2.9983E-03
   3    9.998       7.499       5.000       2.502      2.9983E-03
   4    9.998       7.499       5.000       2.502      2.9983E-03
   5    9.998       7.499       5.000       2.502      2.9983E-03

 HEAD WILL BE SAVED ON UNIT   51 AT END OF TIME STEP   79, STRESS PERIOD    2

 DRAWDOWN WILL BE SAVED ON UNIT   52 AT END OF TIME STEP   79, STRESS PERIOD    2
1
  VOLUMETRIC BUDGET FOR ENTIRE MODEL AT END OF TIME STEP   79, STRESS PERIOD   2
  ------------------------------------------------------------------------------

     CUMULATIVE VOLUMES      L**3       RATES FOR THIS TIME STEP      L**3/T
     ------------------                 ------------------------

           IN:                                      IN:
           ---                                      ---
             STORAGE =           0.0000               STORAGE =           0.0000
       CONSTANT HEAD =           0.0000         CONSTANT HEAD =           0.0000
               WELLS =           0.0000                 WELLS =           0.0000
     HEAD DEP BOUNDS =       70836.2344       HEAD DEP BOUNDS =         749.5325

            TOTAL IN =       70836.2344              TOTAL IN =         749.5325

          OUT:                                     OUT:
          ----                                     ----
             STORAGE =       15000.9072               STORAGE =       2.6617E-02
       CONSTANT HEAD =           0.0000         CONSTANT HEAD =           0.0000
               WELLS =           0.0000                 WELLS =           0.0000
     HEAD DEP BOUNDS =       55838.0977       HEAD DEP BOUNDS =         749.5745

           TOTAL OUT =       70839.0078             TOTAL OUT =         749.6011

            IN - OUT =          -2.7734              IN - OUT =      -6.8604E-02

 PERCENT DISCREPANCY =          -0.00     PERCENT DISCREPANCY =          -0.01






         TIME SUMMARY AT END OF TIME STEP   79 IN STRESS PERIOD    2
                    SECONDS     MINUTES      HOURS       DAYS        YEARS
                    -----------------------------------------------------------
   TIME STEP LENGTH  86400.      1440.0      24.000      1.0000     2.73785E-03
 STRESS PERIOD TIME 6.82560E+06 1.13760E+05  1896.0      79.000     0.21629    
         TOTAL TIME 6.91200E+06 1.15200E+05  1920.0      80.000     0.21903    
1
 
 SOLVING FOR HEAD 

 OUTPUT CONTROL FOR STRESS PERIOD    2   TIME STEP   80
    SAVE HEAD FOR ALL LAYERS
    SAVE DRAWDOWN FOR ALL LAYERS
    SAVE BUDGET
    PRINT HEAD FOR ALL LAYERS
    PRINT BUDGET
 UBDSV1 SAVING "         STORAGE" ON UNIT  53 AT TIME STEP 80, STRESS PERIOD   2
 UBDSV2 SAVING "   CONSTANT HEAD" ON UNIT  53 AT TIME STEP 80, STRESS PERIOD   2
 UBDSV1 SAVING "FLOW RIGHT FACE " ON UNIT  53 AT TIME STEP 80, STRESS PERIOD   2
 UBDSV1 SAVING "FLOW FRONT FACE " ON UNIT  53 AT TIME STEP 80, STRESS PERIOD   2
 UBDSV1 SAVING "FLOW LOWER FACE " ON UNIT  53 AT TIME STEP 80, STRESS PERIOD   2
1
              HEAD IN LAYER   1 AT END OF TIME STEP  80 IN STRESS PERIOD    2
  ---------------------------------------------------------------------------

            1           2           3           4           5
 ............................................................
   1    9.998       7.499       5.000       2.502      2.9983E-03
   2    9.998       7.499       5.000       2.502      2.9983E-03
   3    9.998       7.499       5.000       2.502      2.9983E-03
   4    9.998       7.499       5.000       2.502      2.9983E-03
   5    9.998       7.499       5.000       2.502      2.9983E-03
1
              HEAD IN LAYER   2 AT END OF TIME STEP  80 IN STRESS PERIOD    2
  ---------------------------------------------------------------------------

            1           2           3           4           5
 ............................................................
   1    9.998       7.499       5.000       2.502      2.9983E-03
   2    9.998       7.499       5.000       2.502      2.9983E-03
   3    9.998       7.499       5.000       2.502      2.9983E-03
   4    9.998       7.499       5.000       2.502      2.9983E-03
   5    9.998       7.499       5.000       2.502      2.9983E-03
1
              HEAD IN LAYER   3 AT END OF TIME STEP  80 IN STRESS PERIOD    2
  ---------------------------------------------------------------------------

            1           2           3           4           5
 ............................................................
   1    9.998       7.499       5.000       2.502      2.9983E-03
   2    9.998       7.499       5.000       2.502      2.9983E-03
   3    9.998       7.499       5.000       2.502      2.9983E-03
   4    9.998       7.499       5.000       2.502      2.9983E-03
   5    9.998       7.499       5.000       2.502      2.9983E-03
1
              HEAD IN LAYER   4 AT END OF TIME STEP  80 IN STRESS PERIOD    2
  ---------------------------------------------------------------------------

            1           2           3           4           5
 ............................................................
   1    9.998       7.499       5.000       2.502      2.9983E-03
   2    9.998       7.499       5.000       2.502      2.9983E-03
   3    9.998       7.499       5.000       2.502      2.9983E-03
   4    9.998       7.499       5.000       2.502      2.9983E-03
   5    9.998       7.499       5.000       2.502      2.9983E-03
1
              HEAD IN LAYER   5 AT END OF TIME STEP  80 IN STRESS PERIOD    2
  ---------------------------------------------------------------------------

            1           2           3           4           5
 ............................................................
   1    9.998       7.499       5.000       2.502      2.9983E-03
   2    9.998       7.499       5.000       2.502      2.9983E-03
   3    9.998       7.499       5.000       2.502      2.9983E-03
   4    9.998       7.499       5.000       2.502      2.9983E-03
   5    9.998       7.499       5.000       2.502      2.9983E-03

 HEAD WILL BE SAVED ON UNIT   51 AT END OF TIME STEP   80, STRESS PERIOD    2

 DRAWDOWN WILL BE SAVED ON UNIT   52 AT END OF TIME STEP   80, STRESS PERIOD    2
1
  VOLUMETRIC BUDGET FOR ENTIRE MODEL AT END OF TIME STEP   80, STRESS PERIOD   2
  ------------------------------------------------------------------------------

     CUMULATIVE VOLUMES      L**3       RATES FOR THIS TIME STEP      L**3/T
     ------------------                 ------------------------

           IN:                                      IN:
           ---                                      ---
             STORAGE =           0.0000               STORAGE =           0.0000
       CONSTANT HEAD =           0.0000         CONSTANT HEAD =           0.0000
               WELLS =           0.0000                 WELLS =           0.0000
     HEAD DEP BOUNDS =       71585.7656       HEAD DEP BOUNDS =         749.5309

            TOTAL IN =       71585.7656              TOTAL IN =         749.5309

          OUT:                                     OUT:
          ----                                     ----
             STORAGE =       15000.9297               STORAGE =       2.2610E-02
       CONSTANT HEAD =           0.0000         CONSTANT HEAD =           0.0000
               WELLS =           0.0000                 WELLS =           0.0000
     HEAD DEP BOUNDS =       56587.6719       HEAD DEP BOUNDS =         749.5762

           TOTAL OUT =       71588.6016             TOTAL OUT =         749.5988

            IN - OUT =          -2.8359              IN - OUT =      -6.7871E-02

 PERCENT DISCREPANCY =          -0.00     PERCENT DISCREPANCY =          -0.01






         TIME SUMMARY AT END OF TIME STEP   80 IN STRESS PERIOD    2
                    SECONDS     MINUTES      HOURS       DAYS        YEARS
                    -----------------------------------------------------------
   TIME STEP LENGTH  86400.      1440.0      24.000      1.0000     2.73785E-03
 STRESS PERIOD TIME 6.91200E+06 1.15200E+05  1920.0      80.000     0.21903    
         TOTAL TIME 6.99840E+06 1.16640E+05  1944.0      81.000     0.22177    
1
 
 SOLVING FOR HEAD 

 OUTPUT CONTROL FOR STRESS PERIOD    2   TIME STEP   81
    SAVE HEAD FOR ALL LAYERS
    SAVE DRAWDOWN FOR ALL LAYERS
    SAVE BUDGET
    PRINT HEAD FOR ALL LAYERS
    PRINT BUDGET
 UBDSV1 SAVING "         STORAGE" ON UNIT  53 AT TIME STEP 81, STRESS PERIOD   2
 UBDSV2 SAVING "   CONSTANT HEAD" ON UNIT  53 AT TIME STEP 81, STRESS PERIOD   2
 UBDSV1 SAVING "FLOW RIGHT FACE " ON UNIT  53 AT TIME STEP 81, STRESS PERIOD   2
 UBDSV1 SAVING "FLOW FRONT FACE " ON UNIT  53 AT TIME STEP 81, STRESS PERIOD   2
 UBDSV1 SAVING "FLOW LOWER FACE " ON UNIT  53 AT TIME STEP 81, STRESS PERIOD   2
1
              HEAD IN LAYER   1 AT END OF TIME STEP  81 IN STRESS PERIOD    2
  ---------------------------------------------------------------------------

            1           2           3           4           5
 ............................................................
   1    9.998       7.499       5.000       2.502      2.9983E-03
   2    9.998       7.499       5.000       2.502      2.9983E-03
   3    9.998       7.499       5.000       2.502      2.9983E-03
   4    9.998       7.499       5.000       2.502      2.9983E-03
   5    9.998       7.499       5.000       2.502      2.9983E-03
1
              HEAD IN LAYER   2 AT END OF TIME STEP  81 IN STRESS PERIOD    2
  ---------------------------------------------------------------------------

            1           2           3           4           5
 ............................................................
   1    9.998       7.499       5.000       2.502      2.9983E-03
   2    9.998       7.499       5.000       2.502      2.9983E-03
   3    9.998       7.499       5.000       2.502      2.9983E-03
   4    9.998       7.499       5.000       2.502      2.9983E-03
   5    9.998       7.499       5.000       2.502      2.9983E-03
1
              HEAD IN LAYER   3 AT END OF TIME STEP  81 IN STRESS PERIOD    2
  ---------------------------------------------------------------------------

            1           2           3           4           5
 ............................................................
   1    9.998       7.499       5.000       2.502      2.9983E-03
   2    9.998       7.499       5.000       2.502      2.9983E-03
   3    9.998       7.499       5.000       2.502      2.9983E-03
   4    9.998       7.499       5.000       2.502      2.9983E-03
   5    9.998       7.499       5.000       2.502      2.9983E-03
1
              HEAD IN LAYER   4 AT END OF TIME STEP  81 IN STRESS PERIOD    2
  ---------------------------------------------------------------------------

            1           2           3           4           5
 ............................................................
   1    9.998       7.499       5.000       2.502      2.9983E-03
   2    9.998       7.499       5.000       2.502      2.9983E-03
   3    9.998       7.499       5.000       2.502      2.9983E-03
   4    9.998       7.499       5.000       2.502      2.9983E-03
   5    9.998       7.499       5.000       2.502      2.9983E-03
1
              HEAD IN LAYER   5 AT END OF TIME STEP  81 IN STRESS PERIOD    2
  ---------------------------------------------------------------------------

            1           2           3           4           5
 ............................................................
   1    9.998       7.499       5.000       2.502      2.9983E-03
   2    9.998       7.499       5.000       2.502      2.9983E-03
   3    9.998       7.499       5.000       2.502      2.9983E-03
   4    9.998       7.499       5.000       2.502      2.9983E-03
   5    9.998       7.499       5.000       2.502      2.9983E-03

 HEAD WILL BE SAVED ON UNIT   51 AT END OF TIME STEP   81, STRESS PERIOD    2

 DRAWDOWN WILL BE SAVED ON UNIT   52 AT END OF TIME STEP   81, STRESS PERIOD    2
1
  VOLUMETRIC BUDGET FOR ENTIRE MODEL AT END OF TIME STEP   81, STRESS PERIOD   2
  ------------------------------------------------------------------------------

     CUMULATIVE VOLUMES      L**3       RATES FOR THIS TIME STEP      L**3/T
     ------------------                 ------------------------

           IN:                                      IN:
           ---                                      ---
             STORAGE =           0.0000               STORAGE =           0.0000
       CONSTANT HEAD =           0.0000         CONSTANT HEAD =           0.0000
               WELLS =           0.0000                 WELLS =           0.0000
     HEAD DEP BOUNDS =       72335.2969       HEAD DEP BOUNDS =         749.5294

            TOTAL IN =       72335.2969              TOTAL IN =         749.5294

          OUT:                                     OUT:
          ----                                     ----
             STORAGE =       15000.9502               STORAGE =       2.0892E-02
       CONSTANT HEAD =           0.0000         CONSTANT HEAD =           0.0000
               WELLS =           0.0000                 WELLS =           0.0000
     HEAD DEP BOUNDS =       57337.2500       HEAD DEP BOUNDS =         749.5776

           TOTAL OUT =       72338.2031             TOTAL OUT =         749.5985

            IN - OUT =          -2.9062              IN - OUT =      -6.9092E-02

 PERCENT DISCREPANCY =          -0.00     PERCENT DISCREPANCY =          -0.01






         TIME SUMMARY AT END OF TIME STEP   81 IN STRESS PERIOD    2
                    SECONDS     MINUTES      HOURS       DAYS        YEARS
                    -----------------------------------------------------------
   TIME STEP LENGTH  86400.      1440.0      24.000      1.0000     2.73785E-03
 STRESS PERIOD TIME 6.99840E+06 1.16640E+05  1944.0      81.000     0.22177    
         TOTAL TIME 7.08480E+06 1.18080E+05  1968.0      82.000     0.22450    
1
 
 SOLVING FOR HEAD 

 OUTPUT CONTROL FOR STRESS PERIOD    2   TIME STEP   82
    SAVE HEAD FOR ALL LAYERS
    SAVE DRAWDOWN FOR ALL LAYERS
    SAVE BUDGET
    PRINT HEAD FOR ALL LAYERS
    PRINT BUDGET
 UBDSV1 SAVING "         STORAGE" ON UNIT  53 AT TIME STEP 82, STRESS PERIOD   2
 UBDSV2 SAVING "   CONSTANT HEAD" ON UNIT  53 AT TIME STEP 82, STRESS PERIOD   2
 UBDSV1 SAVING "FLOW RIGHT FACE " ON UNIT  53 AT TIME STEP 82, STRESS PERIOD   2
 UBDSV1 SAVING "FLOW FRONT FACE " ON UNIT  53 AT TIME STEP 82, STRESS PERIOD   2
 UBDSV1 SAVING "FLOW LOWER FACE " ON UNIT  53 AT TIME STEP 82, STRESS PERIOD   2
1
              HEAD IN LAYER   1 AT END OF TIME STEP  82 IN STRESS PERIOD    2
  ---------------------------------------------------------------------------

            1           2           3           4           5
 ............................................................
   1    9.998       7.499       5.000       2.502      2.9983E-03
   2    9.998       7.499       5.000       2.502      2.9983E-03
   3    9.998       7.499       5.000       2.502      2.9983E-03
   4    9.998       7.499       5.000       2.502      2.9983E-03
   5    9.998       7.499       5.000       2.502      2.9983E-03
1
              HEAD IN LAYER   2 AT END OF TIME STEP  82 IN STRESS PERIOD    2
  ---------------------------------------------------------------------------

            1           2           3           4           5
 ............................................................
   1    9.998       7.499       5.000       2.502      2.9983E-03
   2    9.998       7.499       5.000       2.502      2.9983E-03
   3    9.998       7.499       5.000       2.502      2.9983E-03
   4    9.998       7.499       5.000       2.502      2.9983E-03
   5    9.998       7.499       5.000       2.502      2.9983E-03
1
              HEAD IN LAYER   3 AT END OF TIME STEP  82 IN STRESS PERIOD    2
  ---------------------------------------------------------------------------

            1           2           3           4           5
 ............................................................
   1    9.998       7.499       5.000       2.502      2.9983E-03
   2    9.998       7.499       5.000       2.502      2.9983E-03
   3    9.998       7.499       5.000       2.502      2.9983E-03
   4    9.998       7.499       5.000       2.502      2.9983E-03
   5    9.998       7.499       5.000       2.502      2.9983E-03
1
              HEAD IN LAYER   4 AT END OF TIME STEP  82 IN STRESS PERIOD    2
  ---------------------------------------------------------------------------

            1           2           3           4           5
 ............................................................
   1    9.998       7.499       5.000       2.502      2.9983E-03
   2    9.998       7.499       5.000       2.502      2.9983E-03
   3    9.998       7.499       5.000       2.502      2.9983E-03
   4    9.998       7.499       5.000       2.502      2.9983E-03
   5    9.998       7.499       5.000       2.502      2.9983E-03
1
              HEAD IN LAYER   5 AT END OF TIME STEP  82 IN STRESS PERIOD    2
  ---------------------------------------------------------------------------

            1           2           3           4           5
 ............................................................
   1    9.998       7.499       5.000       2.502      2.9983E-03
   2    9.998       7.499       5.000       2.502      2.9983E-03
   3    9.998       7.499       5.000       2.502      2.9983E-03
   4    9.998       7.499       5.000       2.502      2.9983E-03
   5    9.998       7.499       5.000       2.502      2.9983E-03

 HEAD WILL BE SAVED ON UNIT   51 AT END OF TIME STEP   82, STRESS PERIOD    2

 DRAWDOWN WILL BE SAVED ON UNIT   52 AT END OF TIME STEP   82, STRESS PERIOD    2
1
  VOLUMETRIC BUDGET FOR ENTIRE MODEL AT END OF TIME STEP   82, STRESS PERIOD   2
  ------------------------------------------------------------------------------

     CUMULATIVE VOLUMES      L**3       RATES FOR THIS TIME STEP      L**3/T
     ------------------                 ------------------------

           IN:                                      IN:
           ---                                      ---
             STORAGE =           0.0000               STORAGE =           0.0000
       CONSTANT HEAD =           0.0000         CONSTANT HEAD =           0.0000
               WELLS =           0.0000                 WELLS =           0.0000
     HEAD DEP BOUNDS =       73084.8281       HEAD DEP BOUNDS =         749.5281

            TOTAL IN =       73084.8281              TOTAL IN =         749.5281

          OUT:                                     OUT:
          ----                                     ----
             STORAGE =       15000.9678               STORAGE =       1.7744E-02
       CONSTANT HEAD =           0.0000         CONSTANT HEAD =           0.0000
               WELLS =           0.0000                 WELLS =           0.0000
     HEAD DEP BOUNDS =       58086.8281       HEAD DEP BOUNDS =         749.5789

           TOTAL OUT =       73087.7969             TOTAL OUT =         749.5967

            IN - OUT =          -2.9688              IN - OUT =      -6.8604E-02

 PERCENT DISCREPANCY =          -0.00     PERCENT DISCREPANCY =          -0.01






         TIME SUMMARY AT END OF TIME STEP   82 IN STRESS PERIOD    2
                    SECONDS     MINUTES      HOURS       DAYS        YEARS
                    -----------------------------------------------------------
   TIME STEP LENGTH  86400.      1440.0      24.000      1.0000     2.73785E-03
 STRESS PERIOD TIME 7.08480E+06 1.18080E+05  1968.0      82.000     0.22450    
         TOTAL TIME 7.17120E+06 1.19520E+05  1992.0      83.000     0.22724    
1
 
 SOLVING FOR HEAD 

 OUTPUT CONTROL FOR STRESS PERIOD    2   TIME STEP   83
    SAVE HEAD FOR ALL LAYERS
    SAVE DRAWDOWN FOR ALL LAYERS
    SAVE BUDGET
    PRINT HEAD FOR ALL LAYERS
    PRINT BUDGET
 UBDSV1 SAVING "         STORAGE" ON UNIT  53 AT TIME STEP 83, STRESS PERIOD   2
 UBDSV2 SAVING "   CONSTANT HEAD" ON UNIT  53 AT TIME STEP 83, STRESS PERIOD   2
 UBDSV1 SAVING "FLOW RIGHT FACE " ON UNIT  53 AT TIME STEP 83, STRESS PERIOD   2
 UBDSV1 SAVING "FLOW FRONT FACE " ON UNIT  53 AT TIME STEP 83, STRESS PERIOD   2
 UBDSV1 SAVING "FLOW LOWER FACE " ON UNIT  53 AT TIME STEP 83, STRESS PERIOD   2
1
              HEAD IN LAYER   1 AT END OF TIME STEP  83 IN STRESS PERIOD    2
  ---------------------------------------------------------------------------

            1           2           3           4           5
 ............................................................
   1    9.998       7.499       5.000       2.502      2.9983E-03
   2    9.998       7.499       5.000       2.502      2.9983E-03
   3    9.998       7.499       5.000       2.502      2.9983E-03
   4    9.998       7.499       5.000       2.502      2.9983E-03
   5    9.998       7.499       5.000       2.502      2.9983E-03
1
              HEAD IN LAYER   2 AT END OF TIME STEP  83 IN STRESS PERIOD    2
  ---------------------------------------------------------------------------

            1           2           3           4           5
 ............................................................
   1    9.998       7.499       5.000       2.502      2.9983E-03
   2    9.998       7.499       5.000       2.502      2.9983E-03
   3    9.998       7.499       5.000       2.502      2.9983E-03
   4    9.998       7.499       5.000       2.502      2.9983E-03
   5    9.998       7.499       5.000       2.502      2.9983E-03
1
              HEAD IN LAYER   3 AT END OF TIME STEP  83 IN STRESS PERIOD    2
  ---------------------------------------------------------------------------

            1           2           3           4           5
 ............................................................
   1    9.998       7.499       5.000       2.502      2.9983E-03
   2    9.998       7.499       5.000       2.502      2.9983E-03
   3    9.998       7.499       5.000       2.502      2.9983E-03
   4    9.998       7.499       5.000       2.502      2.9983E-03
   5    9.998       7.499       5.000       2.502      2.9983E-03
1
              HEAD IN LAYER   4 AT END OF TIME STEP  83 IN STRESS PERIOD    2
  ---------------------------------------------------------------------------

            1           2           3           4           5
 ............................................................
   1    9.998       7.499       5.000       2.502      2.9983E-03
   2    9.998       7.499       5.000       2.502      2.9983E-03
   3    9.998       7.499       5.000       2.502      2.9983E-03
   4    9.998       7.499       5.000       2.502      2.9983E-03
   5    9.998       7.499       5.000       2.502      2.9983E-03
1
              HEAD IN LAYER   5 AT END OF TIME STEP  83 IN STRESS PERIOD    2
  ---------------------------------------------------------------------------

            1           2           3           4           5
 ............................................................
   1    9.998       7.499       5.000       2.502      2.9983E-03
   2    9.998       7.499       5.000       2.502      2.9983E-03
   3    9.998       7.499       5.000       2.502      2.9983E-03
   4    9.998       7.499       5.000       2.502      2.9983E-03
   5    9.998       7.499       5.000       2.502      2.9983E-03

 HEAD WILL BE SAVED ON UNIT   51 AT END OF TIME STEP   83, STRESS PERIOD    2

 DRAWDOWN WILL BE SAVED ON UNIT   52 AT END OF TIME STEP   83, STRESS PERIOD    2
1
  VOLUMETRIC BUDGET FOR ENTIRE MODEL AT END OF TIME STEP   83, STRESS PERIOD   2
  ------------------------------------------------------------------------------

     CUMULATIVE VOLUMES      L**3       RATES FOR THIS TIME STEP      L**3/T
     ------------------                 ------------------------

           IN:                                      IN:
           ---                                      ---
             STORAGE =           0.0000               STORAGE =           0.0000
       CONSTANT HEAD =           0.0000         CONSTANT HEAD =           0.0000
               WELLS =           0.0000                 WELLS =           0.0000
     HEAD DEP BOUNDS =       73834.3516       HEAD DEP BOUNDS =         749.5270

            TOTAL IN =       73834.3516              TOTAL IN =         749.5270

          OUT:                                     OUT:
          ----                                     ----
             STORAGE =       15000.9834               STORAGE =       1.5455E-02
       CONSTANT HEAD =           0.0000         CONSTANT HEAD =           0.0000
               WELLS =           0.0000                 WELLS =           0.0000
     HEAD DEP BOUNDS =       58836.4062       HEAD DEP BOUNDS =         749.5800

           TOTAL OUT =       73837.3906             TOTAL OUT =         749.5955

            IN - OUT =          -3.0391              IN - OUT =      -6.8481E-02

 PERCENT DISCREPANCY =          -0.00     PERCENT DISCREPANCY =          -0.01






         TIME SUMMARY AT END OF TIME STEP   83 IN STRESS PERIOD    2
                    SECONDS     MINUTES      HOURS       DAYS        YEARS
                    -----------------------------------------------------------
   TIME STEP LENGTH  86400.      1440.0      24.000      1.0000     2.73785E-03
 STRESS PERIOD TIME 7.17120E+06 1.19520E+05  1992.0      83.000     0.22724    
         TOTAL TIME 7.25760E+06 1.20960E+05  2016.0      84.000     0.22998    
1
 
 SOLVING FOR HEAD 

 OUTPUT CONTROL FOR STRESS PERIOD    2   TIME STEP   84
    SAVE HEAD FOR ALL LAYERS
    SAVE DRAWDOWN FOR ALL LAYERS
    SAVE BUDGET
    PRINT HEAD FOR ALL LAYERS
    PRINT BUDGET
 UBDSV1 SAVING "         STORAGE" ON UNIT  53 AT TIME STEP 84, STRESS PERIOD   2
 UBDSV2 SAVING "   CONSTANT HEAD" ON UNIT  53 AT TIME STEP 84, STRESS PERIOD   2
 UBDSV1 SAVING "FLOW RIGHT FACE " ON UNIT  53 AT TIME STEP 84, STRESS PERIOD   2
 UBDSV1 SAVING "FLOW FRONT FACE " ON UNIT  53 AT TIME STEP 84, STRESS PERIOD   2
 UBDSV1 SAVING "FLOW LOWER FACE " ON UNIT  53 AT TIME STEP 84, STRESS PERIOD   2
1
              HEAD IN LAYER   1 AT END OF TIME STEP  84 IN STRESS PERIOD    2
  ---------------------------------------------------------------------------

            1           2           3           4           5
 ............................................................
   1    9.998       7.499       5.000       2.502      2.9983E-03
   2    9.998       7.499       5.000       2.502      2.9983E-03
   3    9.998       7.499       5.000       2.502      2.9983E-03
   4    9.998       7.499       5.000       2.502      2.9983E-03
   5    9.998       7.499       5.000       2.502      2.9983E-03
1
              HEAD IN LAYER   2 AT END OF TIME STEP  84 IN STRESS PERIOD    2
  ---------------------------------------------------------------------------

            1           2           3           4           5
 ............................................................
   1    9.998       7.499       5.000       2.502      2.9983E-03
   2    9.998       7.499       5.000       2.502      2.9983E-03
   3    9.998       7.499       5.000       2.502      2.9983E-03
   4    9.998       7.499       5.000       2.502      2.9983E-03
   5    9.998       7.499       5.000       2.502      2.9983E-03
1
              HEAD IN LAYER   3 AT END OF TIME STEP  84 IN STRESS PERIOD    2
  ---------------------------------------------------------------------------

            1           2           3           4           5
 ............................................................
   1    9.998       7.499       5.000       2.502      2.9983E-03
   2    9.998       7.499       5.000       2.502      2.9983E-03
   3    9.998       7.499       5.000       2.502      2.9983E-03
   4    9.998       7.499       5.000       2.502      2.9983E-03
   5    9.998       7.499       5.000       2.502      2.9983E-03
1
              HEAD IN LAYER   4 AT END OF TIME STEP  84 IN STRESS PERIOD    2
  ---------------------------------------------------------------------------

            1           2           3           4           5
 ............................................................
   1    9.998       7.499       5.000       2.502      2.9983E-03
   2    9.998       7.499       5.000       2.502      2.9983E-03
   3    9.998       7.499       5.000       2.502      2.9983E-03
   4    9.998       7.499       5.000       2.502      2.9983E-03
   5    9.998       7.499       5.000       2.502      2.9983E-03
1
              HEAD IN LAYER   5 AT END OF TIME STEP  84 IN STRESS PERIOD    2
  ---------------------------------------------------------------------------

            1           2           3           4           5
 ............................................................
   1    9.998       7.499       5.000       2.502      2.9983E-03
   2    9.998       7.499       5.000       2.502      2.9983E-03
   3    9.998       7.499       5.000       2.502      2.9983E-03
   4    9.998       7.499       5.000       2.502      2.9983E-03
   5    9.998       7.499       5.000       2.502      2.9983E-03

 HEAD WILL BE SAVED ON UNIT   51 AT END OF TIME STEP   84, STRESS PERIOD    2

 DRAWDOWN WILL BE SAVED ON UNIT   52 AT END OF TIME STEP   84, STRESS PERIOD    2
1
  VOLUMETRIC BUDGET FOR ENTIRE MODEL AT END OF TIME STEP   84, STRESS PERIOD   2
  ------------------------------------------------------------------------------

     CUMULATIVE VOLUMES      L**3       RATES FOR THIS TIME STEP      L**3/T
     ------------------                 ------------------------

           IN:                                      IN:
           ---                                      ---
             STORAGE =           0.0000               STORAGE =           0.0000
       CONSTANT HEAD =           0.0000         CONSTANT HEAD =           0.0000
               WELLS =           0.0000                 WELLS =           0.0000
     HEAD DEP BOUNDS =       74583.8750       HEAD DEP BOUNDS =         749.5259

            TOTAL IN =       74583.8750              TOTAL IN =         749.5259

          OUT:                                     OUT:
          ----                                     ----
             STORAGE =       15000.9971               STORAGE =       1.3738E-02
       CONSTANT HEAD =           0.0000         CONSTANT HEAD =           0.0000
               WELLS =           0.0000                 WELLS =           0.0000
     HEAD DEP BOUNDS =       59585.9883       HEAD DEP BOUNDS =         749.5811

           TOTAL OUT =       74586.9844             TOTAL OUT =         749.5948

            IN - OUT =          -3.1094              IN - OUT =      -6.8848E-02

 PERCENT DISCREPANCY =          -0.00     PERCENT DISCREPANCY =          -0.01






         TIME SUMMARY AT END OF TIME STEP   84 IN STRESS PERIOD    2
                    SECONDS     MINUTES      HOURS       DAYS        YEARS
                    -----------------------------------------------------------
   TIME STEP LENGTH  86400.      1440.0      24.000      1.0000     2.73785E-03
 STRESS PERIOD TIME 7.25760E+06 1.20960E+05  2016.0      84.000     0.22998    
         TOTAL TIME 7.34400E+06 1.22400E+05  2040.0      85.000     0.23272    
1
 
 SOLVING FOR HEAD 

 OUTPUT CONTROL FOR STRESS PERIOD    2   TIME STEP   85
    SAVE HEAD FOR ALL LAYERS
    SAVE DRAWDOWN FOR ALL LAYERS
    SAVE BUDGET
    PRINT HEAD FOR ALL LAYERS
    PRINT BUDGET
 UBDSV1 SAVING "         STORAGE" ON UNIT  53 AT TIME STEP 85, STRESS PERIOD   2
 UBDSV2 SAVING "   CONSTANT HEAD" ON UNIT  53 AT TIME STEP 85, STRESS PERIOD   2
 UBDSV1 SAVING "FLOW RIGHT FACE " ON UNIT  53 AT TIME STEP 85, STRESS PERIOD   2
 UBDSV1 SAVING "FLOW FRONT FACE " ON UNIT  53 AT TIME STEP 85, STRESS PERIOD   2
 UBDSV1 SAVING "FLOW LOWER FACE " ON UNIT  53 AT TIME STEP 85, STRESS PERIOD   2
1
              HEAD IN LAYER   1 AT END OF TIME STEP  85 IN STRESS PERIOD    2
  ---------------------------------------------------------------------------

            1           2           3           4           5
 ............................................................
   1    9.998       7.499       5.000       2.502      2.9983E-03
   2    9.998       7.499       5.000       2.502      2.9983E-03
   3    9.998       7.499       5.000       2.502      2.9983E-03
   4    9.998       7.499       5.000       2.502      2.9983E-03
   5    9.998       7.499       5.000       2.502      2.9983E-03
1
              HEAD IN LAYER   2 AT END OF TIME STEP  85 IN STRESS PERIOD    2
  ---------------------------------------------------------------------------

            1           2           3           4           5
 ............................................................
   1    9.998       7.499       5.000       2.502      2.9983E-03
   2    9.998       7.499       5.000       2.502      2.9983E-03
   3    9.998       7.499       5.000       2.502      2.9983E-03
   4    9.998       7.499       5.000       2.502      2.9983E-03
   5    9.998       7.499       5.000       2.502      2.9983E-03
1
              HEAD IN LAYER   3 AT END OF TIME STEP  85 IN STRESS PERIOD    2
  ---------------------------------------------------------------------------

            1           2           3           4           5
 ............................................................
   1    9.998       7.499       5.000       2.502      2.9983E-03
   2    9.998       7.499       5.000       2.502      2.9983E-03
   3    9.998       7.499       5.000       2.502      2.9983E-03
   4    9.998       7.499       5.000       2.502      2.9983E-03
   5    9.998       7.499       5.000       2.502      2.9983E-03
1
              HEAD IN LAYER   4 AT END OF TIME STEP  85 IN STRESS PERIOD    2
  ---------------------------------------------------------------------------

            1           2           3           4           5
 ............................................................
   1    9.998       7.499       5.000       2.502      2.9983E-03
   2    9.998       7.499       5.000       2.502      2.9983E-03
   3    9.998       7.499       5.000       2.502      2.9983E-03
   4    9.998       7.499       5.000       2.502      2.9983E-03
   5    9.998       7.499       5.000       2.502      2.9983E-03
1
              HEAD IN LAYER   5 AT END OF TIME STEP  85 IN STRESS PERIOD    2
  ---------------------------------------------------------------------------

            1           2           3           4           5
 ............................................................
   1    9.998       7.499       5.000       2.502      2.9983E-03
   2    9.998       7.499       5.000       2.502      2.9983E-03
   3    9.998       7.499       5.000       2.502      2.9983E-03
   4    9.998       7.499       5.000       2.502      2.9983E-03
   5    9.998       7.499       5.000       2.502      2.9983E-03

 HEAD WILL BE SAVED ON UNIT   51 AT END OF TIME STEP   85, STRESS PERIOD    2

 DRAWDOWN WILL BE SAVED ON UNIT   52 AT END OF TIME STEP   85, STRESS PERIOD    2
1
  VOLUMETRIC BUDGET FOR ENTIRE MODEL AT END OF TIME STEP   85, STRESS PERIOD   2
  ------------------------------------------------------------------------------

     CUMULATIVE VOLUMES      L**3       RATES FOR THIS TIME STEP      L**3/T
     ------------------                 ------------------------

           IN:                                      IN:
           ---                                      ---
             STORAGE =           0.0000               STORAGE =           0.0000
       CONSTANT HEAD =           0.0000         CONSTANT HEAD =           0.0000
               WELLS =           0.0000                 WELLS =           0.0000
     HEAD DEP BOUNDS =       75333.3984       HEAD DEP BOUNDS =         749.5251

            TOTAL IN =       75333.3984              TOTAL IN =         749.5251

          OUT:                                     OUT:
          ----                                     ----
             STORAGE =       15001.0088               STORAGE =       1.1448E-02
       CONSTANT HEAD =           0.0000         CONSTANT HEAD =           0.0000
               WELLS =           0.0000                 WELLS =           0.0000
     HEAD DEP BOUNDS =       60335.5703       HEAD DEP BOUNDS =         749.5819

           TOTAL OUT =       75336.5781             TOTAL OUT =         749.5934

            IN - OUT =          -3.1797              IN - OUT =      -6.8237E-02

 PERCENT DISCREPANCY =          -0.00     PERCENT DISCREPANCY =          -0.01






         TIME SUMMARY AT END OF TIME STEP   85 IN STRESS PERIOD    2
                    SECONDS     MINUTES      HOURS       DAYS        YEARS
                    -----------------------------------------------------------
   TIME STEP LENGTH  86400.      1440.0      24.000      1.0000     2.73785E-03
 STRESS PERIOD TIME 7.34400E+06 1.22400E+05  2040.0      85.000     0.23272    
         TOTAL TIME 7.43040E+06 1.23840E+05  2064.0      86.000     0.23546    
1
 
 SOLVING FOR HEAD 

 OUTPUT CONTROL FOR STRESS PERIOD    2   TIME STEP   86
    SAVE HEAD FOR ALL LAYERS
    SAVE DRAWDOWN FOR ALL LAYERS
    SAVE BUDGET
    PRINT HEAD FOR ALL LAYERS
    PRINT BUDGET
 UBDSV1 SAVING "         STORAGE" ON UNIT  53 AT TIME STEP 86, STRESS PERIOD   2
 UBDSV2 SAVING "   CONSTANT HEAD" ON UNIT  53 AT TIME STEP 86, STRESS PERIOD   2
 UBDSV1 SAVING "FLOW RIGHT FACE " ON UNIT  53 AT TIME STEP 86, STRESS PERIOD   2
 UBDSV1 SAVING "FLOW FRONT FACE " ON UNIT  53 AT TIME STEP 86, STRESS PERIOD   2
 UBDSV1 SAVING "FLOW LOWER FACE " ON UNIT  53 AT TIME STEP 86, STRESS PERIOD   2
1
              HEAD IN LAYER   1 AT END OF TIME STEP  86 IN STRESS PERIOD    2
  ---------------------------------------------------------------------------

            1           2           3           4           5
 ............................................................
   1    9.998       7.499       5.000       2.502      2.9983E-03
   2    9.998       7.499       5.000       2.502      2.9983E-03
   3    9.998       7.499       5.000       2.502      2.9983E-03
   4    9.998       7.499       5.000       2.502      2.9983E-03
   5    9.998       7.499       5.000       2.502      2.9983E-03
1
              HEAD IN LAYER   2 AT END OF TIME STEP  86 IN STRESS PERIOD    2
  ---------------------------------------------------------------------------

            1           2           3           4           5
 ............................................................
   1    9.998       7.499       5.000       2.502      2.9983E-03
   2    9.998       7.499       5.000       2.502      2.9983E-03
   3    9.998       7.499       5.000       2.502      2.9983E-03
   4    9.998       7.499       5.000       2.502      2.9983E-03
   5    9.998       7.499       5.000       2.502      2.9983E-03
1
              HEAD IN LAYER   3 AT END OF TIME STEP  86 IN STRESS PERIOD    2
  ---------------------------------------------------------------------------

            1           2           3           4           5
 ............................................................
   1    9.998       7.499       5.000       2.502      2.9983E-03
   2    9.998       7.499       5.000       2.502      2.9983E-03
   3    9.998       7.499       5.000       2.502      2.9983E-03
   4    9.998       7.499       5.000       2.502      2.9983E-03
   5    9.998       7.499       5.000       2.502      2.9983E-03
1
              HEAD IN LAYER   4 AT END OF TIME STEP  86 IN STRESS PERIOD    2
  ---------------------------------------------------------------------------

            1           2           3           4           5
 ............................................................
   1    9.998       7.499       5.000       2.502      2.9983E-03
   2    9.998       7.499       5.000       2.502      2.9983E-03
   3    9.998       7.499       5.000       2.502      2.9983E-03
   4    9.998       7.499       5.000       2.502      2.9983E-03
   5    9.998       7.499       5.000       2.502      2.9983E-03
1
              HEAD IN LAYER   5 AT END OF TIME STEP  86 IN STRESS PERIOD    2
  ---------------------------------------------------------------------------

            1           2           3           4           5
 ............................................................
   1    9.998       7.499       5.000       2.502      2.9983E-03
   2    9.998       7.499       5.000       2.502      2.9983E-03
   3    9.998       7.499       5.000       2.502      2.9983E-03
   4    9.998       7.499       5.000       2.502      2.9983E-03
   5    9.998       7.499       5.000       2.502      2.9983E-03

 HEAD WILL BE SAVED ON UNIT   51 AT END OF TIME STEP   86, STRESS PERIOD    2

 DRAWDOWN WILL BE SAVED ON UNIT   52 AT END OF TIME STEP   86, STRESS PERIOD    2
1
  VOLUMETRIC BUDGET FOR ENTIRE MODEL AT END OF TIME STEP   86, STRESS PERIOD   2
  ------------------------------------------------------------------------------

     CUMULATIVE VOLUMES      L**3       RATES FOR THIS TIME STEP      L**3/T
     ------------------                 ------------------------

           IN:                                      IN:
           ---                                      ---
             STORAGE =           0.0000               STORAGE =           0.0000
       CONSTANT HEAD =           0.0000         CONSTANT HEAD =           0.0000
               WELLS =           0.0000                 WELLS =           0.0000
     HEAD DEP BOUNDS =       76082.9219       HEAD DEP BOUNDS =         749.5243

            TOTAL IN =       76082.9219              TOTAL IN =         749.5243

          OUT:                                     OUT:
          ----                                     ----
             STORAGE =       15001.0195               STORAGE =       1.0303E-02
       CONSTANT HEAD =           0.0000         CONSTANT HEAD =           0.0000
               WELLS =           0.0000                 WELLS =           0.0000
     HEAD DEP BOUNDS =       61085.1523       HEAD DEP BOUNDS =         749.5826

           TOTAL OUT =       76086.1719             TOTAL OUT =         749.5930

            IN - OUT =          -3.2500              IN - OUT =      -6.8665E-02

 PERCENT DISCREPANCY =          -0.00     PERCENT DISCREPANCY =          -0.01






         TIME SUMMARY AT END OF TIME STEP   86 IN STRESS PERIOD    2
                    SECONDS     MINUTES      HOURS       DAYS        YEARS
                    -----------------------------------------------------------
   TIME STEP LENGTH  86400.      1440.0      24.000      1.0000     2.73785E-03
 STRESS PERIOD TIME 7.43040E+06 1.23840E+05  2064.0      86.000     0.23546    
         TOTAL TIME 7.51680E+06 1.25280E+05  2088.0      87.000     0.23819    
1
 
 SOLVING FOR HEAD 

 OUTPUT CONTROL FOR STRESS PERIOD    2   TIME STEP   87
    SAVE HEAD FOR ALL LAYERS
    SAVE DRAWDOWN FOR ALL LAYERS
    SAVE BUDGET
    PRINT HEAD FOR ALL LAYERS
    PRINT BUDGET
 UBDSV1 SAVING "         STORAGE" ON UNIT  53 AT TIME STEP 87, STRESS PERIOD   2
 UBDSV2 SAVING "   CONSTANT HEAD" ON UNIT  53 AT TIME STEP 87, STRESS PERIOD   2
 UBDSV1 SAVING "FLOW RIGHT FACE " ON UNIT  53 AT TIME STEP 87, STRESS PERIOD   2
 UBDSV1 SAVING "FLOW FRONT FACE " ON UNIT  53 AT TIME STEP 87, STRESS PERIOD   2
 UBDSV1 SAVING "FLOW LOWER FACE " ON UNIT  53 AT TIME STEP 87, STRESS PERIOD   2
1
              HEAD IN LAYER   1 AT END OF TIME STEP  87 IN STRESS PERIOD    2
  ---------------------------------------------------------------------------

            1           2           3           4           5
 ............................................................
   1    9.998       7.499       5.000       2.502      2.9983E-03
   2    9.998       7.499       5.000       2.502      2.9983E-03
   3    9.998       7.499       5.000       2.502      2.9983E-03
   4    9.998       7.499       5.000       2.502      2.9983E-03
   5    9.998       7.499       5.000       2.502      2.9983E-03
1
              HEAD IN LAYER   2 AT END OF TIME STEP  87 IN STRESS PERIOD    2
  ---------------------------------------------------------------------------

            1           2           3           4           5
 ............................................................
   1    9.998       7.499       5.000       2.502      2.9983E-03
   2    9.998       7.499       5.000       2.502      2.9983E-03
   3    9.998       7.499       5.000       2.502      2.9983E-03
   4    9.998       7.499       5.000       2.502      2.9983E-03
   5    9.998       7.499       5.000       2.502      2.9983E-03
1
              HEAD IN LAYER   3 AT END OF TIME STEP  87 IN STRESS PERIOD    2
  ---------------------------------------------------------------------------

            1           2           3           4           5
 ............................................................
   1    9.998       7.499       5.000       2.502      2.9983E-03
   2    9.998       7.499       5.000       2.502      2.9983E-03
   3    9.998       7.499       5.000       2.502      2.9983E-03
   4    9.998       7.499       5.000       2.502      2.9983E-03
   5    9.998       7.499       5.000       2.502      2.9983E-03
1
              HEAD IN LAYER   4 AT END OF TIME STEP  87 IN STRESS PERIOD    2
  ---------------------------------------------------------------------------

            1           2           3           4           5
 ............................................................
   1    9.998       7.499       5.000       2.502      2.9983E-03
   2    9.998       7.499       5.000       2.502      2.9983E-03
   3    9.998       7.499       5.000       2.502      2.9983E-03
   4    9.998       7.499       5.000       2.502      2.9983E-03
   5    9.998       7.499       5.000       2.502      2.9983E-03
1
              HEAD IN LAYER   5 AT END OF TIME STEP  87 IN STRESS PERIOD    2
  ---------------------------------------------------------------------------

            1           2           3           4           5
 ............................................................
   1    9.998       7.499       5.000       2.502      2.9983E-03
   2    9.998       7.499       5.000       2.502      2.9983E-03
   3    9.998       7.499       5.000       2.502      2.9983E-03
   4    9.998       7.499       5.000       2.502      2.9983E-03
   5    9.998       7.499       5.000       2.502      2.9983E-03

 HEAD WILL BE SAVED ON UNIT   51 AT END OF TIME STEP   87, STRESS PERIOD    2

 DRAWDOWN WILL BE SAVED ON UNIT   52 AT END OF TIME STEP   87, STRESS PERIOD    2
1
  VOLUMETRIC BUDGET FOR ENTIRE MODEL AT END OF TIME STEP   87, STRESS PERIOD   2
  ------------------------------------------------------------------------------

     CUMULATIVE VOLUMES      L**3       RATES FOR THIS TIME STEP      L**3/T
     ------------------                 ------------------------

           IN:                                      IN:
           ---                                      ---
             STORAGE =           0.0000               STORAGE =           0.0000
       CONSTANT HEAD =           0.0000         CONSTANT HEAD =           0.0000
               WELLS =           0.0000                 WELLS =           0.0000
     HEAD DEP BOUNDS =       76832.4453       HEAD DEP BOUNDS =         749.5237

            TOTAL IN =       76832.4453              TOTAL IN =         749.5237

          OUT:                                     OUT:
          ----                                     ----
             STORAGE =       15001.0283               STORAGE =       8.8722E-03
       CONSTANT HEAD =           0.0000         CONSTANT HEAD =           0.0000
               WELLS =           0.0000                 WELLS =           0.0000
     HEAD DEP BOUNDS =       61834.7344       HEAD DEP BOUNDS =         749.5833

           TOTAL OUT =       76835.7656             TOTAL OUT =         749.5922

            IN - OUT =          -3.3203              IN - OUT =      -6.8481E-02

 PERCENT DISCREPANCY =          -0.00     PERCENT DISCREPANCY =          -0.01






         TIME SUMMARY AT END OF TIME STEP   87 IN STRESS PERIOD    2
                    SECONDS     MINUTES      HOURS       DAYS        YEARS
                    -----------------------------------------------------------
   TIME STEP LENGTH  86400.      1440.0      24.000      1.0000     2.73785E-03
 STRESS PERIOD TIME 7.51680E+06 1.25280E+05  2088.0      87.000     0.23819    
         TOTAL TIME 7.60320E+06 1.26720E+05  2112.0      88.000     0.24093    
1
 
 SOLVING FOR HEAD 

 OUTPUT CONTROL FOR STRESS PERIOD    2   TIME STEP   88
    SAVE HEAD FOR ALL LAYERS
    SAVE DRAWDOWN FOR ALL LAYERS
    SAVE BUDGET
    PRINT HEAD FOR ALL LAYERS
    PRINT BUDGET
 UBDSV1 SAVING "         STORAGE" ON UNIT  53 AT TIME STEP 88, STRESS PERIOD   2
 UBDSV2 SAVING "   CONSTANT HEAD" ON UNIT  53 AT TIME STEP 88, STRESS PERIOD   2
 UBDSV1 SAVING "FLOW RIGHT FACE " ON UNIT  53 AT TIME STEP 88, STRESS PERIOD   2
 UBDSV1 SAVING "FLOW FRONT FACE " ON UNIT  53 AT TIME STEP 88, STRESS PERIOD   2
 UBDSV1 SAVING "FLOW LOWER FACE " ON UNIT  53 AT TIME STEP 88, STRESS PERIOD   2
1
              HEAD IN LAYER   1 AT END OF TIME STEP  88 IN STRESS PERIOD    2
  ---------------------------------------------------------------------------

            1           2           3           4           5
 ............................................................
   1    9.998       7.499       5.000       2.502      2.9983E-03
   2    9.998       7.499       5.000       2.502      2.9983E-03
   3    9.998       7.499       5.000       2.502      2.9983E-03
   4    9.998       7.499       5.000       2.502      2.9983E-03
   5    9.998       7.499       5.000       2.502      2.9983E-03
1
              HEAD IN LAYER   2 AT END OF TIME STEP  88 IN STRESS PERIOD    2
  ---------------------------------------------------------------------------

            1           2           3           4           5
 ............................................................
   1    9.998       7.499       5.000       2.502      2.9983E-03
   2    9.998       7.499       5.000       2.502      2.9983E-03
   3    9.998       7.499       5.000       2.502      2.9983E-03
   4    9.998       7.499       5.000       2.502      2.9983E-03
   5    9.998       7.499       5.000       2.502      2.9983E-03
1
              HEAD IN LAYER   3 AT END OF TIME STEP  88 IN STRESS PERIOD    2
  ---------------------------------------------------------------------------

            1           2           3           4           5
 ............................................................
   1    9.998       7.499       5.000       2.502      2.9983E-03
   2    9.998       7.499       5.000       2.502      2.9983E-03
   3    9.998       7.499       5.000       2.502      2.9983E-03
   4    9.998       7.499       5.000       2.502      2.9983E-03
   5    9.998       7.499       5.000       2.502      2.9983E-03
1
              HEAD IN LAYER   4 AT END OF TIME STEP  88 IN STRESS PERIOD    2
  ---------------------------------------------------------------------------

            1           2           3           4           5
 ............................................................
   1    9.998       7.499       5.000       2.502      2.9983E-03
   2    9.998       7.499       5.000       2.502      2.9983E-03
   3    9.998       7.499       5.000       2.502      2.9983E-03
   4    9.998       7.499       5.000       2.502      2.9983E-03
   5    9.998       7.499       5.000       2.502      2.9983E-03
1
              HEAD IN LAYER   5 AT END OF TIME STEP  88 IN STRESS PERIOD    2
  ---------------------------------------------------------------------------

            1           2           3           4           5
 ............................................................
   1    9.998       7.499       5.000       2.502      2.9983E-03
   2    9.998       7.499       5.000       2.502      2.9983E-03
   3    9.998       7.499       5.000       2.502      2.9983E-03
   4    9.998       7.499       5.000       2.502      2.9983E-03
   5    9.998       7.499       5.000       2.502      2.9983E-03

 HEAD WILL BE SAVED ON UNIT   51 AT END OF TIME STEP   88, STRESS PERIOD    2

 DRAWDOWN WILL BE SAVED ON UNIT   52 AT END OF TIME STEP   88, STRESS PERIOD    2
1
  VOLUMETRIC BUDGET FOR ENTIRE MODEL AT END OF TIME STEP   88, STRESS PERIOD   2
  ------------------------------------------------------------------------------

     CUMULATIVE VOLUMES      L**3       RATES FOR THIS TIME STEP      L**3/T
     ------------------                 ------------------------

           IN:                                      IN:
           ---                                      ---
             STORAGE =           0.0000               STORAGE =           0.0000
       CONSTANT HEAD =           0.0000         CONSTANT HEAD =           0.0000
               WELLS =           0.0000                 WELLS =           0.0000
     HEAD DEP BOUNDS =       77581.9688       HEAD DEP BOUNDS =         749.5231

            TOTAL IN =       77581.9688              TOTAL IN =         749.5231

          OUT:                                     OUT:
          ----                                     ----
             STORAGE =       15001.0361               STORAGE =       8.0135E-03
       CONSTANT HEAD =           0.0000         CONSTANT HEAD =           0.0000
               WELLS =           0.0000                 WELLS =           0.0000
     HEAD DEP BOUNDS =       62584.3164       HEAD DEP BOUNDS =         749.5839

           TOTAL OUT =       77585.3516             TOTAL OUT =         749.5919

            IN - OUT =          -3.3828              IN - OUT =      -6.8726E-02

 PERCENT DISCREPANCY =          -0.00     PERCENT DISCREPANCY =          -0.01






         TIME SUMMARY AT END OF TIME STEP   88 IN STRESS PERIOD    2
                    SECONDS     MINUTES      HOURS       DAYS        YEARS
                    -----------------------------------------------------------
   TIME STEP LENGTH  86400.      1440.0      24.000      1.0000     2.73785E-03
 STRESS PERIOD TIME 7.60320E+06 1.26720E+05  2112.0      88.000     0.24093    
         TOTAL TIME 7.68960E+06 1.28160E+05  2136.0      89.000     0.24367    
1
 
 SOLVING FOR HEAD 

 OUTPUT CONTROL FOR STRESS PERIOD    2   TIME STEP   89
    SAVE HEAD FOR ALL LAYERS
    SAVE DRAWDOWN FOR ALL LAYERS
    SAVE BUDGET
    PRINT HEAD FOR ALL LAYERS
    PRINT BUDGET
 UBDSV1 SAVING "         STORAGE" ON UNIT  53 AT TIME STEP 89, STRESS PERIOD   2
 UBDSV2 SAVING "   CONSTANT HEAD" ON UNIT  53 AT TIME STEP 89, STRESS PERIOD   2
 UBDSV1 SAVING "FLOW RIGHT FACE " ON UNIT  53 AT TIME STEP 89, STRESS PERIOD   2
 UBDSV1 SAVING "FLOW FRONT FACE " ON UNIT  53 AT TIME STEP 89, STRESS PERIOD   2
 UBDSV1 SAVING "FLOW LOWER FACE " ON UNIT  53 AT TIME STEP 89, STRESS PERIOD   2
1
              HEAD IN LAYER   1 AT END OF TIME STEP  89 IN STRESS PERIOD    2
  ---------------------------------------------------------------------------

            1           2           3           4           5
 ............................................................
   1    9.998       7.499       5.000       2.502      2.9983E-03
   2    9.998       7.499       5.000       2.502      2.9983E-03
   3    9.998       7.499       5.000       2.502      2.9983E-03
   4    9.998       7.499       5.000       2.502      2.9983E-03
   5    9.998       7.499       5.000       2.502      2.9983E-03
1
              HEAD IN LAYER   2 AT END OF TIME STEP  89 IN STRESS PERIOD    2
  ---------------------------------------------------------------------------

            1           2           3           4           5
 ............................................................
   1    9.998       7.499       5.000       2.502      2.9983E-03
   2    9.998       7.499       5.000       2.502      2.9983E-03
   3    9.998       7.499       5.000       2.502      2.9983E-03
   4    9.998       7.499       5.000       2.502      2.9983E-03
   5    9.998       7.499       5.000       2.502      2.9983E-03
1
              HEAD IN LAYER   3 AT END OF TIME STEP  89 IN STRESS PERIOD    2
  ---------------------------------------------------------------------------

            1           2           3           4           5
 ............................................................
   1    9.998       7.499       5.000       2.502      2.9983E-03
   2    9.998       7.499       5.000       2.502      2.9983E-03
   3    9.998       7.499       5.000       2.502      2.9983E-03
   4    9.998       7.499       5.000       2.502      2.9983E-03
   5    9.998       7.499       5.000       2.502      2.9983E-03
1
              HEAD IN LAYER   4 AT END OF TIME STEP  89 IN STRESS PERIOD    2
  ---------------------------------------------------------------------------

            1           2           3           4           5
 ............................................................
   1    9.998       7.499       5.000       2.502      2.9983E-03
   2    9.998       7.499       5.000       2.502      2.9983E-03
   3    9.998       7.499       5.000       2.502      2.9983E-03
   4    9.998       7.499       5.000       2.502      2.9983E-03
   5    9.998       7.499       5.000       2.502      2.9983E-03
1
              HEAD IN LAYER   5 AT END OF TIME STEP  89 IN STRESS PERIOD    2
  ---------------------------------------------------------------------------

            1           2           3           4           5
 ............................................................
   1    9.998       7.499       5.000       2.502      2.9983E-03
   2    9.998       7.499       5.000       2.502      2.9983E-03
   3    9.998       7.499       5.000       2.502      2.9983E-03
   4    9.998       7.499       5.000       2.502      2.9983E-03
   5    9.998       7.499       5.000       2.502      2.9983E-03

 HEAD WILL BE SAVED ON UNIT   51 AT END OF TIME STEP   89, STRESS PERIOD    2

 DRAWDOWN WILL BE SAVED ON UNIT   52 AT END OF TIME STEP   89, STRESS PERIOD    2
1
  VOLUMETRIC BUDGET FOR ENTIRE MODEL AT END OF TIME STEP   89, STRESS PERIOD   2
  ------------------------------------------------------------------------------

     CUMULATIVE VOLUMES      L**3       RATES FOR THIS TIME STEP      L**3/T
     ------------------                 ------------------------

           IN:                                      IN:
           ---                                      ---
             STORAGE =           0.0000               STORAGE =           0.0000
       CONSTANT HEAD =           0.0000         CONSTANT HEAD =           0.0000
               WELLS =           0.0000                 WELLS =           0.0000
     HEAD DEP BOUNDS =       78331.4922       HEAD DEP BOUNDS =         749.5226

            TOTAL IN =       78331.4922              TOTAL IN =         749.5226

          OUT:                                     OUT:
          ----                                     ----
             STORAGE =       15001.0420               STORAGE =       6.0106E-03
       CONSTANT HEAD =           0.0000         CONSTANT HEAD =           0.0000
               WELLS =           0.0000                 WELLS =           0.0000
     HEAD DEP BOUNDS =       63333.9023       HEAD DEP BOUNDS =         749.5844

           TOTAL OUT =       78334.9453             TOTAL OUT =         749.5903

            IN - OUT =          -3.4531              IN - OUT =      -6.7688E-02

 PERCENT DISCREPANCY =          -0.00     PERCENT DISCREPANCY =          -0.01






         TIME SUMMARY AT END OF TIME STEP   89 IN STRESS PERIOD    2
                    SECONDS     MINUTES      HOURS       DAYS        YEARS
                    -----------------------------------------------------------
   TIME STEP LENGTH  86400.      1440.0      24.000      1.0000     2.73785E-03
 STRESS PERIOD TIME 7.68960E+06 1.28160E+05  2136.0      89.000     0.24367    
         TOTAL TIME 7.77600E+06 1.29600E+05  2160.0      90.000     0.24641    
1
 
 SOLVING FOR HEAD 

 OUTPUT CONTROL FOR STRESS PERIOD    2   TIME STEP   90
    SAVE HEAD FOR ALL LAYERS
    SAVE DRAWDOWN FOR ALL LAYERS
    SAVE BUDGET
    PRINT HEAD FOR ALL LAYERS
    PRINT BUDGET
 UBDSV1 SAVING "         STORAGE" ON UNIT  53 AT TIME STEP 90, STRESS PERIOD   2
 UBDSV2 SAVING "   CONSTANT HEAD" ON UNIT  53 AT TIME STEP 90, STRESS PERIOD   2
 UBDSV1 SAVING "FLOW RIGHT FACE " ON UNIT  53 AT TIME STEP 90, STRESS PERIOD   2
 UBDSV1 SAVING "FLOW FRONT FACE " ON UNIT  53 AT TIME STEP 90, STRESS PERIOD   2
 UBDSV1 SAVING "FLOW LOWER FACE " ON UNIT  53 AT TIME STEP 90, STRESS PERIOD   2
1
              HEAD IN LAYER   1 AT END OF TIME STEP  90 IN STRESS PERIOD    2
  ---------------------------------------------------------------------------

            1           2           3           4           5
 ............................................................
   1    9.998       7.499       5.000       2.502      2.9983E-03
   2    9.998       7.499       5.000       2.502      2.9983E-03
   3    9.998       7.499       5.000       2.502      2.9983E-03
   4    9.998       7.499       5.000       2.502      2.9983E-03
   5    9.998       7.499       5.000       2.502      2.9983E-03
1
              HEAD IN LAYER   2 AT END OF TIME STEP  90 IN STRESS PERIOD    2
  ---------------------------------------------------------------------------

            1           2           3           4           5
 ............................................................
   1    9.998       7.499       5.000       2.502      2.9983E-03
   2    9.998       7.499       5.000       2.502      2.9983E-03
   3    9.998       7.499       5.000       2.502      2.9983E-03
   4    9.998       7.499       5.000       2.502      2.9983E-03
   5    9.998       7.499       5.000       2.502      2.9983E-03
1
              HEAD IN LAYER   3 AT END OF TIME STEP  90 IN STRESS PERIOD    2
  ---------------------------------------------------------------------------

            1           2           3           4           5
 ............................................................
   1    9.998       7.499       5.000       2.502      2.9983E-03
   2    9.998       7.499       5.000       2.502      2.9983E-03
   3    9.998       7.499       5.000       2.502      2.9983E-03
   4    9.998       7.499       5.000       2.502      2.9983E-03
   5    9.998       7.499       5.000       2.502      2.9983E-03
1
              HEAD IN LAYER   4 AT END OF TIME STEP  90 IN STRESS PERIOD    2
  ---------------------------------------------------------------------------

            1           2           3           4           5
 ............................................................
   1    9.998       7.499       5.000       2.502      2.9983E-03
   2    9.998       7.499       5.000       2.502      2.9983E-03
   3    9.998       7.499       5.000       2.502      2.9983E-03
   4    9.998       7.499       5.000       2.502      2.9983E-03
   5    9.998       7.499       5.000       2.502      2.9983E-03
1
              HEAD IN LAYER   5 AT END OF TIME STEP  90 IN STRESS PERIOD    2
  ---------------------------------------------------------------------------

            1           2           3           4           5
 ............................................................
   1    9.998       7.499       5.000       2.502      2.9983E-03
   2    9.998       7.499       5.000       2.502      2.9983E-03
   3    9.998       7.499       5.000       2.502      2.9983E-03
   4    9.998       7.499       5.000       2.502      2.9983E-03
   5    9.998       7.499       5.000       2.502      2.9983E-03

 HEAD WILL BE SAVED ON UNIT   51 AT END OF TIME STEP   90, STRESS PERIOD    2

 DRAWDOWN WILL BE SAVED ON UNIT   52 AT END OF TIME STEP   90, STRESS PERIOD    2
1
  VOLUMETRIC BUDGET FOR ENTIRE MODEL AT END OF TIME STEP   90, STRESS PERIOD   2
  ------------------------------------------------------------------------------

     CUMULATIVE VOLUMES      L**3       RATES FOR THIS TIME STEP      L**3/T
     ------------------                 ------------------------

           IN:                                      IN:
           ---                                      ---
             STORAGE =           0.0000               STORAGE =           0.0000
       CONSTANT HEAD =           0.0000         CONSTANT HEAD =           0.0000
               WELLS =           0.0000                 WELLS =           0.0000
     HEAD DEP BOUNDS =       79081.0156       HEAD DEP BOUNDS =         749.5223

            TOTAL IN =       79081.0156              TOTAL IN =         749.5223

          OUT:                                     OUT:
          ----                                     ----
             STORAGE =       15001.0479               STORAGE =       5.7243E-03
       CONSTANT HEAD =           0.0000         CONSTANT HEAD =           0.0000
               WELLS =           0.0000                 WELLS =           0.0000
     HEAD DEP BOUNDS =       64083.4883       HEAD DEP BOUNDS =         749.5848

           TOTAL OUT =       79084.5391             TOTAL OUT =         749.5905

            IN - OUT =          -3.5234              IN - OUT =      -6.8237E-02

 PERCENT DISCREPANCY =          -0.00     PERCENT DISCREPANCY =          -0.01






         TIME SUMMARY AT END OF TIME STEP   90 IN STRESS PERIOD    2
                    SECONDS     MINUTES      HOURS       DAYS        YEARS
                    -----------------------------------------------------------
   TIME STEP LENGTH  86400.      1440.0      24.000      1.0000     2.73785E-03
 STRESS PERIOD TIME 7.77600E+06 1.29600E+05  2160.0      90.000     0.24641    
         TOTAL TIME 7.86240E+06 1.31040E+05  2184.0      91.000     0.24914    
1
 
 SOLVING FOR HEAD 

 OUTPUT CONTROL FOR STRESS PERIOD    2   TIME STEP   91
    SAVE HEAD FOR ALL LAYERS
    SAVE DRAWDOWN FOR ALL LAYERS
    SAVE BUDGET
    PRINT HEAD FOR ALL LAYERS
    PRINT BUDGET
 UBDSV1 SAVING "         STORAGE" ON UNIT  53 AT TIME STEP 91, STRESS PERIOD   2
 UBDSV2 SAVING "   CONSTANT HEAD" ON UNIT  53 AT TIME STEP 91, STRESS PERIOD   2
 UBDSV1 SAVING "FLOW RIGHT FACE " ON UNIT  53 AT TIME STEP 91, STRESS PERIOD   2
 UBDSV1 SAVING "FLOW FRONT FACE " ON UNIT  53 AT TIME STEP 91, STRESS PERIOD   2
 UBDSV1 SAVING "FLOW LOWER FACE " ON UNIT  53 AT TIME STEP 91, STRESS PERIOD   2
1
              HEAD IN LAYER   1 AT END OF TIME STEP  91 IN STRESS PERIOD    2
  ---------------------------------------------------------------------------

            1           2           3           4           5
 ............................................................
   1    9.998       7.499       5.000       2.502      2.9983E-03
   2    9.998       7.499       5.000       2.502      2.9983E-03
   3    9.998       7.499       5.000       2.502      2.9983E-03
   4    9.998       7.499       5.000       2.502      2.9983E-03
   5    9.998       7.499       5.000       2.502      2.9983E-03
1
              HEAD IN LAYER   2 AT END OF TIME STEP  91 IN STRESS PERIOD    2
  ---------------------------------------------------------------------------

            1           2           3           4           5
 ............................................................
   1    9.998       7.499       5.000       2.502      2.9983E-03
   2    9.998       7.499       5.000       2.502      2.9983E-03
   3    9.998       7.499       5.000       2.502      2.9983E-03
   4    9.998       7.499       5.000       2.502      2.9983E-03
   5    9.998       7.499       5.000       2.502      2.9983E-03
1
              HEAD IN LAYER   3 AT END OF TIME STEP  91 IN STRESS PERIOD    2
  ---------------------------------------------------------------------------

            1           2           3           4           5
 ............................................................
   1    9.998       7.499       5.000       2.502      2.9983E-03
   2    9.998       7.499       5.000       2.502      2.9983E-03
   3    9.998       7.499       5.000       2.502      2.9983E-03
   4    9.998       7.499       5.000       2.502      2.9983E-03
   5    9.998       7.499       5.000       2.502      2.9983E-03
1
              HEAD IN LAYER   4 AT END OF TIME STEP  91 IN STRESS PERIOD    2
  ---------------------------------------------------------------------------

            1           2           3           4           5
 ............................................................
   1    9.998       7.499       5.000       2.502      2.9983E-03
   2    9.998       7.499       5.000       2.502      2.9983E-03
   3    9.998       7.499       5.000       2.502      2.9983E-03
   4    9.998       7.499       5.000       2.502      2.9983E-03
   5    9.998       7.499       5.000       2.502      2.9983E-03
1
              HEAD IN LAYER   5 AT END OF TIME STEP  91 IN STRESS PERIOD    2
  ---------------------------------------------------------------------------

            1           2           3           4           5
 ............................................................
   1    9.998       7.499       5.000       2.502      2.9983E-03
   2    9.998       7.499       5.000       2.502      2.9983E-03
   3    9.998       7.499       5.000       2.502      2.9983E-03
   4    9.998       7.499       5.000       2.502      2.9983E-03
   5    9.998       7.499       5.000       2.502      2.9983E-03

 HEAD WILL BE SAVED ON UNIT   51 AT END OF TIME STEP   91, STRESS PERIOD    2

 DRAWDOWN WILL BE SAVED ON UNIT   52 AT END OF TIME STEP   91, STRESS PERIOD    2
1
  VOLUMETRIC BUDGET FOR ENTIRE MODEL AT END OF TIME STEP   91, STRESS PERIOD   2
  ------------------------------------------------------------------------------

     CUMULATIVE VOLUMES      L**3       RATES FOR THIS TIME STEP      L**3/T
     ------------------                 ------------------------

           IN:                                      IN:
           ---                                      ---
             STORAGE =           0.0000               STORAGE =           0.0000
       CONSTANT HEAD =           0.0000         CONSTANT HEAD =           0.0000
               WELLS =           0.0000                 WELLS =           0.0000
     HEAD DEP BOUNDS =       79830.5391       HEAD DEP BOUNDS =         749.5220

            TOTAL IN =       79830.5391              TOTAL IN =         749.5220

          OUT:                                     OUT:
          ----                                     ----
             STORAGE =       15001.0518               STORAGE =       4.2930E-03
       CONSTANT HEAD =           0.0000         CONSTANT HEAD =           0.0000
               WELLS =           0.0000                 WELLS =           0.0000
     HEAD DEP BOUNDS =       64833.0742       HEAD DEP BOUNDS =         749.5851

           TOTAL OUT =       79834.1250             TOTAL OUT =         749.5894

            IN - OUT =          -3.5859              IN - OUT =      -6.7444E-02

 PERCENT DISCREPANCY =          -0.00     PERCENT DISCREPANCY =          -0.01






         TIME SUMMARY AT END OF TIME STEP   91 IN STRESS PERIOD    2
                    SECONDS     MINUTES      HOURS       DAYS        YEARS
                    -----------------------------------------------------------
   TIME STEP LENGTH  86400.      1440.0      24.000      1.0000     2.73785E-03
 STRESS PERIOD TIME 7.86240E+06 1.31040E+05  2184.0      91.000     0.24914    
         TOTAL TIME 7.94880E+06 1.32480E+05  2208.0      92.000     0.25188    
1
 
 SOLVING FOR HEAD 

 OUTPUT CONTROL FOR STRESS PERIOD    2   TIME STEP   92
    SAVE HEAD FOR ALL LAYERS
    SAVE DRAWDOWN FOR ALL LAYERS
    SAVE BUDGET
    PRINT HEAD FOR ALL LAYERS
    PRINT BUDGET
 UBDSV1 SAVING "         STORAGE" ON UNIT  53 AT TIME STEP 92, STRESS PERIOD   2
 UBDSV2 SAVING "   CONSTANT HEAD" ON UNIT  53 AT TIME STEP 92, STRESS PERIOD   2
 UBDSV1 SAVING "FLOW RIGHT FACE " ON UNIT  53 AT TIME STEP 92, STRESS PERIOD   2
 UBDSV1 SAVING "FLOW FRONT FACE " ON UNIT  53 AT TIME STEP 92, STRESS PERIOD   2
 UBDSV1 SAVING "FLOW LOWER FACE " ON UNIT  53 AT TIME STEP 92, STRESS PERIOD   2
1
              HEAD IN LAYER   1 AT END OF TIME STEP  92 IN STRESS PERIOD    2
  ---------------------------------------------------------------------------

            1           2           3           4           5
 ............................................................
   1    9.998       7.499       5.000       2.502      2.9983E-03
   2    9.998       7.499       5.000       2.502      2.9983E-03
   3    9.998       7.499       5.000       2.502      2.9983E-03
   4    9.998       7.499       5.000       2.502      2.9983E-03
   5    9.998       7.499       5.000       2.502      2.9983E-03
1
              HEAD IN LAYER   2 AT END OF TIME STEP  92 IN STRESS PERIOD    2
  ---------------------------------------------------------------------------

            1           2           3           4           5
 ............................................................
   1    9.998       7.499       5.000       2.502      2.9983E-03
   2    9.998       7.499       5.000       2.502      2.9983E-03
   3    9.998       7.499       5.000       2.502      2.9983E-03
   4    9.998       7.499       5.000       2.502      2.9983E-03
   5    9.998       7.499       5.000       2.502      2.9983E-03
1
              HEAD IN LAYER   3 AT END OF TIME STEP  92 IN STRESS PERIOD    2
  ---------------------------------------------------------------------------

            1           2           3           4           5
 ............................................................
   1    9.998       7.499       5.000       2.502      2.9983E-03
   2    9.998       7.499       5.000       2.502      2.9983E-03
   3    9.998       7.499       5.000       2.502      2.9983E-03
   4    9.998       7.499       5.000       2.502      2.9983E-03
   5    9.998       7.499       5.000       2.502      2.9983E-03
1
              HEAD IN LAYER   4 AT END OF TIME STEP  92 IN STRESS PERIOD    2
  ---------------------------------------------------------------------------

            1           2           3           4           5
 ............................................................
   1    9.998       7.499       5.000       2.502      2.9983E-03
   2    9.998       7.499       5.000       2.502      2.9983E-03
   3    9.998       7.499       5.000       2.502      2.9983E-03
   4    9.998       7.499       5.000       2.502      2.9983E-03
   5    9.998       7.499       5.000       2.502      2.9983E-03
1
              HEAD IN LAYER   5 AT END OF TIME STEP  92 IN STRESS PERIOD    2
  ---------------------------------------------------------------------------

            1           2           3           4           5
 ............................................................
   1    9.998       7.499       5.000       2.502      2.9983E-03
   2    9.998       7.499       5.000       2.502      2.9983E-03
   3    9.998       7.499       5.000       2.502      2.9983E-03
   4    9.998       7.499       5.000       2.502      2.9983E-03
   5    9.998       7.499       5.000       2.502      2.9983E-03

 HEAD WILL BE SAVED ON UNIT   51 AT END OF TIME STEP   92, STRESS PERIOD    2

 DRAWDOWN WILL BE SAVED ON UNIT   52 AT END OF TIME STEP   92, STRESS PERIOD    2
1
  VOLUMETRIC BUDGET FOR ENTIRE MODEL AT END OF TIME STEP   92, STRESS PERIOD   2
  ------------------------------------------------------------------------------

     CUMULATIVE VOLUMES      L**3       RATES FOR THIS TIME STEP      L**3/T
     ------------------                 ------------------------

           IN:                                      IN:
           ---                                      ---
             STORAGE =           0.0000               STORAGE =           0.0000
       CONSTANT HEAD =           0.0000         CONSTANT HEAD =           0.0000
               WELLS =           0.0000                 WELLS =           0.0000
     HEAD DEP BOUNDS =       80580.0625       HEAD DEP BOUNDS =         749.5217

            TOTAL IN =       80580.0625              TOTAL IN =         749.5217

          OUT:                                     OUT:
          ----                                     ----
             STORAGE =       15001.0557               STORAGE =       4.0070E-03
       CONSTANT HEAD =           0.0000         CONSTANT HEAD =           0.0000
               WELLS =           0.0000                 WELLS =           0.0000
     HEAD DEP BOUNDS =       65582.6562       HEAD DEP BOUNDS =         749.5854

           TOTAL OUT =       80583.7109             TOTAL OUT =         749.5895

            IN - OUT =          -3.6484              IN - OUT =      -6.7810E-02

 PERCENT DISCREPANCY =          -0.00     PERCENT DISCREPANCY =          -0.01






         TIME SUMMARY AT END OF TIME STEP   92 IN STRESS PERIOD    2
                    SECONDS     MINUTES      HOURS       DAYS        YEARS
                    -----------------------------------------------------------
   TIME STEP LENGTH  86400.      1440.0      24.000      1.0000     2.73785E-03
 STRESS PERIOD TIME 7.94880E+06 1.32480E+05  2208.0      92.000     0.25188    
         TOTAL TIME 8.03520E+06 1.33920E+05  2232.0      93.000     0.25462    
1
 
 SOLVING FOR HEAD 

 OUTPUT CONTROL FOR STRESS PERIOD    2   TIME STEP   93
    SAVE HEAD FOR ALL LAYERS
    SAVE DRAWDOWN FOR ALL LAYERS
    SAVE BUDGET
    PRINT HEAD FOR ALL LAYERS
    PRINT BUDGET
 UBDSV1 SAVING "         STORAGE" ON UNIT  53 AT TIME STEP 93, STRESS PERIOD   2
 UBDSV2 SAVING "   CONSTANT HEAD" ON UNIT  53 AT TIME STEP 93, STRESS PERIOD   2
 UBDSV1 SAVING "FLOW RIGHT FACE " ON UNIT  53 AT TIME STEP 93, STRESS PERIOD   2
 UBDSV1 SAVING "FLOW FRONT FACE " ON UNIT  53 AT TIME STEP 93, STRESS PERIOD   2
 UBDSV1 SAVING "FLOW LOWER FACE " ON UNIT  53 AT TIME STEP 93, STRESS PERIOD   2
1
              HEAD IN LAYER   1 AT END OF TIME STEP  93 IN STRESS PERIOD    2
  ---------------------------------------------------------------------------

            1           2           3           4           5
 ............................................................
   1    9.998       7.499       5.000       2.502      2.9983E-03
   2    9.998       7.499       5.000       2.502      2.9983E-03
   3    9.998       7.499       5.000       2.502      2.9983E-03
   4    9.998       7.499       5.000       2.502      2.9983E-03
   5    9.998       7.499       5.000       2.502      2.9983E-03
1
              HEAD IN LAYER   2 AT END OF TIME STEP  93 IN STRESS PERIOD    2
  ---------------------------------------------------------------------------

            1           2           3           4           5
 ............................................................
   1    9.998       7.499       5.000       2.502      2.9983E-03
   2    9.998       7.499       5.000       2.502      2.9983E-03
   3    9.998       7.499       5.000       2.502      2.9983E-03
   4    9.998       7.499       5.000       2.502      2.9983E-03
   5    9.998       7.499       5.000       2.502      2.9983E-03
1
              HEAD IN LAYER   3 AT END OF TIME STEP  93 IN STRESS PERIOD    2
  ---------------------------------------------------------------------------

            1           2           3           4           5
 ............................................................
   1    9.998       7.499       5.000       2.502      2.9983E-03
   2    9.998       7.499       5.000       2.502      2.9983E-03
   3    9.998       7.499       5.000       2.502      2.9983E-03
   4    9.998       7.499       5.000       2.502      2.9983E-03
   5    9.998       7.499       5.000       2.502      2.9983E-03
1
              HEAD IN LAYER   4 AT END OF TIME STEP  93 IN STRESS PERIOD    2
  ---------------------------------------------------------------------------

            1           2           3           4           5
 ............................................................
   1    9.998       7.499       5.000       2.502      2.9983E-03
   2    9.998       7.499       5.000       2.502      2.9983E-03
   3    9.998       7.499       5.000       2.502      2.9983E-03
   4    9.998       7.499       5.000       2.502      2.9983E-03
   5    9.998       7.499       5.000       2.502      2.9983E-03
1
              HEAD IN LAYER   5 AT END OF TIME STEP  93 IN STRESS PERIOD    2
  ---------------------------------------------------------------------------

            1           2           3           4           5
 ............................................................
   1    9.998       7.499       5.000       2.502      2.9983E-03
   2    9.998       7.499       5.000       2.502      2.9983E-03
   3    9.998       7.499       5.000       2.502      2.9983E-03
   4    9.998       7.499       5.000       2.502      2.9983E-03
   5    9.998       7.499       5.000       2.502      2.9983E-03

 HEAD WILL BE SAVED ON UNIT   51 AT END OF TIME STEP   93, STRESS PERIOD    2

 DRAWDOWN WILL BE SAVED ON UNIT   52 AT END OF TIME STEP   93, STRESS PERIOD    2
1
  VOLUMETRIC BUDGET FOR ENTIRE MODEL AT END OF TIME STEP   93, STRESS PERIOD   2
  ------------------------------------------------------------------------------

     CUMULATIVE VOLUMES      L**3       RATES FOR THIS TIME STEP      L**3/T
     ------------------                 ------------------------

           IN:                                      IN:
           ---                                      ---
             STORAGE =           0.0000               STORAGE =           0.0000
       CONSTANT HEAD =           0.0000         CONSTANT HEAD =           0.0000
               WELLS =           0.0000                 WELLS =           0.0000
     HEAD DEP BOUNDS =       81329.5859       HEAD DEP BOUNDS =         749.5213

            TOTAL IN =       81329.5859              TOTAL IN =         749.5213

          OUT:                                     OUT:
          ----                                     ----
             STORAGE =       15001.0605               STORAGE =       4.5790E-03
       CONSTANT HEAD =           0.0000         CONSTANT HEAD =           0.0000
               WELLS =           0.0000                 WELLS =           0.0000
     HEAD DEP BOUNDS =       66332.2422       HEAD DEP BOUNDS =         749.5857

           TOTAL OUT =       81333.3047             TOTAL OUT =         749.5903

            IN - OUT =          -3.7188              IN - OUT =      -6.8970E-02

 PERCENT DISCREPANCY =          -0.00     PERCENT DISCREPANCY =          -0.01






         TIME SUMMARY AT END OF TIME STEP   93 IN STRESS PERIOD    2
                    SECONDS     MINUTES      HOURS       DAYS        YEARS
                    -----------------------------------------------------------
   TIME STEP LENGTH  86400.      1440.0      24.000      1.0000     2.73785E-03
 STRESS PERIOD TIME 8.03520E+06 1.33920E+05  2232.0      93.000     0.25462    
         TOTAL TIME 8.12160E+06 1.35360E+05  2256.0      94.000     0.25736    
1
 
 SOLVING FOR HEAD 

 OUTPUT CONTROL FOR STRESS PERIOD    2   TIME STEP   94
    SAVE HEAD FOR ALL LAYERS
    SAVE DRAWDOWN FOR ALL LAYERS
    SAVE BUDGET
    PRINT HEAD FOR ALL LAYERS
    PRINT BUDGET
 UBDSV1 SAVING "         STORAGE" ON UNIT  53 AT TIME STEP 94, STRESS PERIOD   2
 UBDSV2 SAVING "   CONSTANT HEAD" ON UNIT  53 AT TIME STEP 94, STRESS PERIOD   2
 UBDSV1 SAVING "FLOW RIGHT FACE " ON UNIT  53 AT TIME STEP 94, STRESS PERIOD   2
 UBDSV1 SAVING "FLOW FRONT FACE " ON UNIT  53 AT TIME STEP 94, STRESS PERIOD   2
 UBDSV1 SAVING "FLOW LOWER FACE " ON UNIT  53 AT TIME STEP 94, STRESS PERIOD   2
1
              HEAD IN LAYER   1 AT END OF TIME STEP  94 IN STRESS PERIOD    2
  ---------------------------------------------------------------------------

            1           2           3           4           5
 ............................................................
   1    9.998       7.499       5.000       2.502      2.9983E-03
   2    9.998       7.499       5.000       2.502      2.9983E-03
   3    9.998       7.499       5.000       2.502      2.9983E-03
   4    9.998       7.499       5.000       2.502      2.9983E-03
   5    9.998       7.499       5.000       2.502      2.9983E-03
1
              HEAD IN LAYER   2 AT END OF TIME STEP  94 IN STRESS PERIOD    2
  ---------------------------------------------------------------------------

            1           2           3           4           5
 ............................................................
   1    9.998       7.499       5.000       2.502      2.9983E-03
   2    9.998       7.499       5.000       2.502      2.9983E-03
   3    9.998       7.499       5.000       2.502      2.9983E-03
   4    9.998       7.499       5.000       2.502      2.9983E-03
   5    9.998       7.499       5.000       2.502      2.9983E-03
1
              HEAD IN LAYER   3 AT END OF TIME STEP  94 IN STRESS PERIOD    2
  ---------------------------------------------------------------------------

            1           2           3           4           5
 ............................................................
   1    9.998       7.499       5.000       2.502      2.9983E-03
   2    9.998       7.499       5.000       2.502      2.9983E-03
   3    9.998       7.499       5.000       2.502      2.9983E-03
   4    9.998       7.499       5.000       2.502      2.9983E-03
   5    9.998       7.499       5.000       2.502      2.9983E-03
1
              HEAD IN LAYER   4 AT END OF TIME STEP  94 IN STRESS PERIOD    2
  ---------------------------------------------------------------------------

            1           2           3           4           5
 ............................................................
   1    9.998       7.499       5.000       2.502      2.9983E-03
   2    9.998       7.499       5.000       2.502      2.9983E-03
   3    9.998       7.499       5.000       2.502      2.9983E-03
   4    9.998       7.499       5.000       2.502      2.9983E-03
   5    9.998       7.499       5.000       2.502      2.9983E-03
1
              HEAD IN LAYER   5 AT END OF TIME STEP  94 IN STRESS PERIOD    2
  ---------------------------------------------------------------------------

            1           2           3           4           5
 ............................................................
   1    9.998       7.499       5.000       2.502      2.9983E-03
   2    9.998       7.499       5.000       2.502      2.9983E-03
   3    9.998       7.499       5.000       2.502      2.9983E-03
   4    9.998       7.499       5.000       2.502      2.9983E-03
   5    9.998       7.499       5.000       2.502      2.9983E-03

 HEAD WILL BE SAVED ON UNIT   51 AT END OF TIME STEP   94, STRESS PERIOD    2

 DRAWDOWN WILL BE SAVED ON UNIT   52 AT END OF TIME STEP   94, STRESS PERIOD    2
1
  VOLUMETRIC BUDGET FOR ENTIRE MODEL AT END OF TIME STEP   94, STRESS PERIOD   2
  ------------------------------------------------------------------------------

     CUMULATIVE VOLUMES      L**3       RATES FOR THIS TIME STEP      L**3/T
     ------------------                 ------------------------

           IN:                                      IN:
           ---                                      ---
             STORAGE =           0.0000               STORAGE =           0.0000
       CONSTANT HEAD =           0.0000         CONSTANT HEAD =           0.0000
               WELLS =           0.0000                 WELLS =           0.0000
     HEAD DEP BOUNDS =       82079.1094       HEAD DEP BOUNDS =         749.5210

            TOTAL IN =       82079.1094              TOTAL IN =         749.5210

          OUT:                                     OUT:
          ----                                     ----
             STORAGE =       15001.0645               STORAGE =       4.0065E-03
       CONSTANT HEAD =           0.0000         CONSTANT HEAD =           0.0000
               WELLS =           0.0000                 WELLS =           0.0000
     HEAD DEP BOUNDS =       67081.8281       HEAD DEP BOUNDS =         749.5860

           TOTAL OUT =       82082.8906             TOTAL OUT =         749.5900

            IN - OUT =          -3.7812              IN - OUT =      -6.9031E-02

 PERCENT DISCREPANCY =          -0.00     PERCENT DISCREPANCY =          -0.01






         TIME SUMMARY AT END OF TIME STEP   94 IN STRESS PERIOD    2
                    SECONDS     MINUTES      HOURS       DAYS        YEARS
                    -----------------------------------------------------------
   TIME STEP LENGTH  86400.      1440.0      24.000      1.0000     2.73785E-03
 STRESS PERIOD TIME 8.12160E+06 1.35360E+05  2256.0      94.000     0.25736    
         TOTAL TIME 8.20800E+06 1.36800E+05  2280.0      95.000     0.26010    
1
 
 SOLVING FOR HEAD 

 OUTPUT CONTROL FOR STRESS PERIOD    2   TIME STEP   95
    SAVE HEAD FOR ALL LAYERS
    SAVE DRAWDOWN FOR ALL LAYERS
    SAVE BUDGET
    PRINT HEAD FOR ALL LAYERS
    PRINT BUDGET
 UBDSV1 SAVING "         STORAGE" ON UNIT  53 AT TIME STEP 95, STRESS PERIOD   2
 UBDSV2 SAVING "   CONSTANT HEAD" ON UNIT  53 AT TIME STEP 95, STRESS PERIOD   2
 UBDSV1 SAVING "FLOW RIGHT FACE " ON UNIT  53 AT TIME STEP 95, STRESS PERIOD   2
 UBDSV1 SAVING "FLOW FRONT FACE " ON UNIT  53 AT TIME STEP 95, STRESS PERIOD   2
 UBDSV1 SAVING "FLOW LOWER FACE " ON UNIT  53 AT TIME STEP 95, STRESS PERIOD   2
1
              HEAD IN LAYER   1 AT END OF TIME STEP  95 IN STRESS PERIOD    2
  ---------------------------------------------------------------------------

            1           2           3           4           5
 ............................................................
   1    9.998       7.499       5.000       2.502      2.9983E-03
   2    9.998       7.499       5.000       2.502      2.9983E-03
   3    9.998       7.499       5.000       2.502      2.9983E-03
   4    9.998       7.499       5.000       2.502      2.9983E-03
   5    9.998       7.499       5.000       2.502      2.9983E-03
1
              HEAD IN LAYER   2 AT END OF TIME STEP  95 IN STRESS PERIOD    2
  ---------------------------------------------------------------------------

            1           2           3           4           5
 ............................................................
   1    9.998       7.499       5.000       2.502      2.9983E-03
   2    9.998       7.499       5.000       2.502      2.9983E-03
   3    9.998       7.499       5.000       2.502      2.9983E-03
   4    9.998       7.499       5.000       2.502      2.9983E-03
   5    9.998       7.499       5.000       2.502      2.9983E-03
1
              HEAD IN LAYER   3 AT END OF TIME STEP  95 IN STRESS PERIOD    2
  ---------------------------------------------------------------------------

            1           2           3           4           5
 ............................................................
   1    9.998       7.499       5.000       2.502      2.9983E-03
   2    9.998       7.499       5.000       2.502      2.9983E-03
   3    9.998       7.499       5.000       2.502      2.9983E-03
   4    9.998       7.499       5.000       2.502      2.9983E-03
   5    9.998       7.499       5.000       2.502      2.9983E-03
1
              HEAD IN LAYER   4 AT END OF TIME STEP  95 IN STRESS PERIOD    2
  ---------------------------------------------------------------------------

            1           2           3           4           5
 ............................................................
   1    9.998       7.499       5.000       2.502      2.9983E-03
   2    9.998       7.499       5.000       2.502      2.9983E-03
   3    9.998       7.499       5.000       2.502      2.9983E-03
   4    9.998       7.499       5.000       2.502      2.9983E-03
   5    9.998       7.499       5.000       2.502      2.9983E-03
1
              HEAD IN LAYER   5 AT END OF TIME STEP  95 IN STRESS PERIOD    2
  ---------------------------------------------------------------------------

            1           2           3           4           5
 ............................................................
   1    9.998       7.499       5.000       2.502      2.9983E-03
   2    9.998       7.499       5.000       2.502      2.9983E-03
   3    9.998       7.499       5.000       2.502      2.9983E-03
   4    9.998       7.499       5.000       2.502      2.9983E-03
   5    9.998       7.499       5.000       2.502      2.9983E-03

 HEAD WILL BE SAVED ON UNIT   51 AT END OF TIME STEP   95, STRESS PERIOD    2

 DRAWDOWN WILL BE SAVED ON UNIT   52 AT END OF TIME STEP   95, STRESS PERIOD    2
1
  VOLUMETRIC BUDGET FOR ENTIRE MODEL AT END OF TIME STEP   95, STRESS PERIOD   2
  ------------------------------------------------------------------------------

     CUMULATIVE VOLUMES      L**3       RATES FOR THIS TIME STEP      L**3/T
     ------------------                 ------------------------

           IN:                                      IN:
           ---                                      ---
             STORAGE =           0.0000               STORAGE =           0.0000
       CONSTANT HEAD =           0.0000         CONSTANT HEAD =           0.0000
               WELLS =           0.0000                 WELLS =           0.0000
     HEAD DEP BOUNDS =       82828.6328       HEAD DEP BOUNDS =         749.5209

            TOTAL IN =       82828.6328              TOTAL IN =         749.5209

          OUT:                                     OUT:
          ----                                     ----
             STORAGE =       15001.0674               STORAGE =       2.5752E-03
       CONSTANT HEAD =           0.0000         CONSTANT HEAD =           0.0000
               WELLS =           0.0000                 WELLS =           0.0000
     HEAD DEP BOUNDS =       67831.4141       HEAD DEP BOUNDS =         749.5861

           TOTAL OUT =       82832.4844             TOTAL OUT =         749.5886

            IN - OUT =          -3.8516              IN - OUT =      -6.7749E-02

 PERCENT DISCREPANCY =          -0.00     PERCENT DISCREPANCY =          -0.01






         TIME SUMMARY AT END OF TIME STEP   95 IN STRESS PERIOD    2
                    SECONDS     MINUTES      HOURS       DAYS        YEARS
                    -----------------------------------------------------------
   TIME STEP LENGTH  86400.      1440.0      24.000      1.0000     2.73785E-03
 STRESS PERIOD TIME 8.20800E+06 1.36800E+05  2280.0      95.000     0.26010    
         TOTAL TIME 8.29440E+06 1.38240E+05  2304.0      96.000     0.26283    
1
 
 SOLVING FOR HEAD 

 OUTPUT CONTROL FOR STRESS PERIOD    2   TIME STEP   96
    SAVE HEAD FOR ALL LAYERS
    SAVE DRAWDOWN FOR ALL LAYERS
    SAVE BUDGET
    PRINT HEAD FOR ALL LAYERS
    PRINT BUDGET
 UBDSV1 SAVING "         STORAGE" ON UNIT  53 AT TIME STEP 96, STRESS PERIOD   2
 UBDSV2 SAVING "   CONSTANT HEAD" ON UNIT  53 AT TIME STEP 96, STRESS PERIOD   2
 UBDSV1 SAVING "FLOW RIGHT FACE " ON UNIT  53 AT TIME STEP 96, STRESS PERIOD   2
 UBDSV1 SAVING "FLOW FRONT FACE " ON UNIT  53 AT TIME STEP 96, STRESS PERIOD   2
 UBDSV1 SAVING "FLOW LOWER FACE " ON UNIT  53 AT TIME STEP 96, STRESS PERIOD   2
1
              HEAD IN LAYER   1 AT END OF TIME STEP  96 IN STRESS PERIOD    2
  ---------------------------------------------------------------------------

            1           2           3           4           5
 ............................................................
   1    9.998       7.499       5.000       2.502      2.9983E-03
   2    9.998       7.499       5.000       2.502      2.9983E-03
   3    9.998       7.499       5.000       2.502      2.9983E-03
   4    9.998       7.499       5.000       2.502      2.9983E-03
   5    9.998       7.499       5.000       2.502      2.9983E-03
1
              HEAD IN LAYER   2 AT END OF TIME STEP  96 IN STRESS PERIOD    2
  ---------------------------------------------------------------------------

            1           2           3           4           5
 ............................................................
   1    9.998       7.499       5.000       2.502      2.9983E-03
   2    9.998       7.499       5.000       2.502      2.9983E-03
   3    9.998       7.499       5.000       2.502      2.9983E-03
   4    9.998       7.499       5.000       2.502      2.9983E-03
   5    9.998       7.499       5.000       2.502      2.9983E-03
1
              HEAD IN LAYER   3 AT END OF TIME STEP  96 IN STRESS PERIOD    2
  ---------------------------------------------------------------------------

            1           2           3           4           5
 ............................................................
   1    9.998       7.499       5.000       2.502      2.9983E-03
   2    9.998       7.499       5.000       2.502      2.9983E-03
   3    9.998       7.499       5.000       2.502      2.9983E-03
   4    9.998       7.499       5.000       2.502      2.9983E-03
   5    9.998       7.499       5.000       2.502      2.9983E-03
1
              HEAD IN LAYER   4 AT END OF TIME STEP  96 IN STRESS PERIOD    2
  ---------------------------------------------------------------------------

            1           2           3           4           5
 ............................................................
   1    9.998       7.499       5.000       2.502      2.9983E-03
   2    9.998       7.499       5.000       2.502      2.9983E-03
   3    9.998       7.499       5.000       2.502      2.9983E-03
   4    9.998       7.499       5.000       2.502      2.9983E-03
   5    9.998       7.499       5.000       2.502      2.9983E-03
1
              HEAD IN LAYER   5 AT END OF TIME STEP  96 IN STRESS PERIOD    2
  ---------------------------------------------------------------------------

            1           2           3           4           5
 ............................................................
   1    9.998       7.499       5.000       2.502      2.9983E-03
   2    9.998       7.499       5.000       2.502      2.9983E-03
   3    9.998       7.499       5.000       2.502      2.9983E-03
   4    9.998       7.499       5.000       2.502      2.9983E-03
   5    9.998       7.499       5.000       2.502      2.9983E-03

 HEAD WILL BE SAVED ON UNIT   51 AT END OF TIME STEP   96, STRESS PERIOD    2

 DRAWDOWN WILL BE SAVED ON UNIT   52 AT END OF TIME STEP   96, STRESS PERIOD    2
1
  VOLUMETRIC BUDGET FOR ENTIRE MODEL AT END OF TIME STEP   96, STRESS PERIOD   2
  ------------------------------------------------------------------------------

     CUMULATIVE VOLUMES      L**3       RATES FOR THIS TIME STEP      L**3/T
     ------------------                 ------------------------

           IN:                                      IN:
           ---                                      ---
             STORAGE =           0.0000               STORAGE =           0.0000
       CONSTANT HEAD =           0.0000         CONSTANT HEAD =           0.0000
               WELLS =           0.0000                 WELLS =           0.0000
     HEAD DEP BOUNDS =       83578.1562       HEAD DEP BOUNDS =         749.5207

            TOTAL IN =       83578.1562              TOTAL IN =         749.5207

          OUT:                                     OUT:
          ----                                     ----
             STORAGE =       15001.0693               STORAGE =       2.2899E-03
       CONSTANT HEAD =           0.0000         CONSTANT HEAD =           0.0000
               WELLS =           0.0000                 WELLS =           0.0000
     HEAD DEP BOUNDS =       68581.0000       HEAD DEP BOUNDS =         749.5862

           TOTAL OUT =       83582.0703             TOTAL OUT =         749.5886

            IN - OUT =          -3.9141              IN - OUT =      -6.7871E-02

 PERCENT DISCREPANCY =          -0.00     PERCENT DISCREPANCY =          -0.01






         TIME SUMMARY AT END OF TIME STEP   96 IN STRESS PERIOD    2
                    SECONDS     MINUTES      HOURS       DAYS        YEARS
                    -----------------------------------------------------------
   TIME STEP LENGTH  86400.      1440.0      24.000      1.0000     2.73785E-03
 STRESS PERIOD TIME 8.29440E+06 1.38240E+05  2304.0      96.000     0.26283    
         TOTAL TIME 8.38080E+06 1.39680E+05  2328.0      97.000     0.26557    
1
 
 SOLVING FOR HEAD 

 OUTPUT CONTROL FOR STRESS PERIOD    2   TIME STEP   97
    SAVE HEAD FOR ALL LAYERS
    SAVE DRAWDOWN FOR ALL LAYERS
    SAVE BUDGET
    PRINT HEAD FOR ALL LAYERS
    PRINT BUDGET
 UBDSV1 SAVING "         STORAGE" ON UNIT  53 AT TIME STEP 97, STRESS PERIOD   2
 UBDSV2 SAVING "   CONSTANT HEAD" ON UNIT  53 AT TIME STEP 97, STRESS PERIOD   2
 UBDSV1 SAVING "FLOW RIGHT FACE " ON UNIT  53 AT TIME STEP 97, STRESS PERIOD   2
 UBDSV1 SAVING "FLOW FRONT FACE " ON UNIT  53 AT TIME STEP 97, STRESS PERIOD   2
 UBDSV1 SAVING "FLOW LOWER FACE " ON UNIT  53 AT TIME STEP 97, STRESS PERIOD   2
1
              HEAD IN LAYER   1 AT END OF TIME STEP  97 IN STRESS PERIOD    2
  ---------------------------------------------------------------------------

            1           2           3           4           5
 ............................................................
   1    9.998       7.499       5.000       2.502      2.9983E-03
   2    9.998       7.499       5.000       2.502      2.9983E-03
   3    9.998       7.499       5.000       2.502      2.9983E-03
   4    9.998       7.499       5.000       2.502      2.9983E-03
   5    9.998       7.499       5.000       2.502      2.9983E-03
1
              HEAD IN LAYER   2 AT END OF TIME STEP  97 IN STRESS PERIOD    2
  ---------------------------------------------------------------------------

            1           2           3           4           5
 ............................................................
   1    9.998       7.499       5.000       2.502      2.9983E-03
   2    9.998       7.499       5.000       2.502      2.9983E-03
   3    9.998       7.499       5.000       2.502      2.9983E-03
   4    9.998       7.499       5.000       2.502      2.9983E-03
   5    9.998       7.499       5.000       2.502      2.9983E-03
1
              HEAD IN LAYER   3 AT END OF TIME STEP  97 IN STRESS PERIOD    2
  ---------------------------------------------------------------------------

            1           2           3           4           5
 ............................................................
   1    9.998       7.499       5.000       2.502      2.9983E-03
   2    9.998       7.499       5.000       2.502      2.9983E-03
   3    9.998       7.499       5.000       2.502      2.9983E-03
   4    9.998       7.499       5.000       2.502      2.9983E-03
   5    9.998       7.499       5.000       2.502      2.9983E-03
1
              HEAD IN LAYER   4 AT END OF TIME STEP  97 IN STRESS PERIOD    2
  ---------------------------------------------------------------------------

            1           2           3           4           5
 ............................................................
   1    9.998       7.499       5.000       2.502      2.9983E-03
   2    9.998       7.499       5.000       2.502      2.9983E-03
   3    9.998       7.499       5.000       2.502      2.9983E-03
   4    9.998       7.499       5.000       2.502      2.9983E-03
   5    9.998       7.499       5.000       2.502      2.9983E-03
1
              HEAD IN LAYER   5 AT END OF TIME STEP  97 IN STRESS PERIOD    2
  ---------------------------------------------------------------------------

            1           2           3           4           5
 ............................................................
   1    9.998       7.499       5.000       2.502      2.9983E-03
   2    9.998       7.499       5.000       2.502      2.9983E-03
   3    9.998       7.499       5.000       2.502      2.9983E-03
   4    9.998       7.499       5.000       2.502      2.9983E-03
   5    9.998       7.499       5.000       2.502      2.9983E-03

 HEAD WILL BE SAVED ON UNIT   51 AT END OF TIME STEP   97, STRESS PERIOD    2

 DRAWDOWN WILL BE SAVED ON UNIT   52 AT END OF TIME STEP   97, STRESS PERIOD    2
1
  VOLUMETRIC BUDGET FOR ENTIRE MODEL AT END OF TIME STEP   97, STRESS PERIOD   2
  ------------------------------------------------------------------------------

     CUMULATIVE VOLUMES      L**3       RATES FOR THIS TIME STEP      L**3/T
     ------------------                 ------------------------

           IN:                                      IN:
           ---                                      ---
             STORAGE =           0.0000               STORAGE =           0.0000
       CONSTANT HEAD =           0.0000         CONSTANT HEAD =           0.0000
               WELLS =           0.0000                 WELLS =           0.0000
     HEAD DEP BOUNDS =       84327.6797       HEAD DEP BOUNDS =         749.5205

            TOTAL IN =       84327.6797              TOTAL IN =         749.5205

          OUT:                                     OUT:
          ----                                     ----
             STORAGE =       15001.0713               STORAGE =       2.0036E-03
       CONSTANT HEAD =           0.0000         CONSTANT HEAD =           0.0000
               WELLS =           0.0000                 WELLS =           0.0000
     HEAD DEP BOUNDS =       69330.5859       HEAD DEP BOUNDS =         749.5864

           TOTAL OUT =       84331.6562             TOTAL OUT =         749.5884

            IN - OUT =          -3.9766              IN - OUT =      -6.7932E-02

 PERCENT DISCREPANCY =          -0.00     PERCENT DISCREPANCY =          -0.01






         TIME SUMMARY AT END OF TIME STEP   97 IN STRESS PERIOD    2
                    SECONDS     MINUTES      HOURS       DAYS        YEARS
                    -----------------------------------------------------------
   TIME STEP LENGTH  86400.      1440.0      24.000      1.0000     2.73785E-03
 STRESS PERIOD TIME 8.38080E+06 1.39680E+05  2328.0      97.000     0.26557    
         TOTAL TIME 8.46720E+06 1.41120E+05  2352.0      98.000     0.26831    
1
 
 SOLVING FOR HEAD 

 OUTPUT CONTROL FOR STRESS PERIOD    2   TIME STEP   98
    SAVE HEAD FOR ALL LAYERS
    SAVE DRAWDOWN FOR ALL LAYERS
    SAVE BUDGET
    PRINT HEAD FOR ALL LAYERS
    PRINT BUDGET
 UBDSV1 SAVING "         STORAGE" ON UNIT  53 AT TIME STEP 98, STRESS PERIOD   2
 UBDSV2 SAVING "   CONSTANT HEAD" ON UNIT  53 AT TIME STEP 98, STRESS PERIOD   2
 UBDSV1 SAVING "FLOW RIGHT FACE " ON UNIT  53 AT TIME STEP 98, STRESS PERIOD   2
 UBDSV1 SAVING "FLOW FRONT FACE " ON UNIT  53 AT TIME STEP 98, STRESS PERIOD   2
 UBDSV1 SAVING "FLOW LOWER FACE " ON UNIT  53 AT TIME STEP 98, STRESS PERIOD   2
1
              HEAD IN LAYER   1 AT END OF TIME STEP  98 IN STRESS PERIOD    2
  ---------------------------------------------------------------------------

            1           2           3           4           5
 ............................................................
   1    9.998       7.499       5.000       2.502      2.9983E-03
   2    9.998       7.499       5.000       2.502      2.9983E-03
   3    9.998       7.499       5.000       2.502      2.9983E-03
   4    9.998       7.499       5.000       2.502      2.9983E-03
   5    9.998       7.499       5.000       2.502      2.9983E-03
1
              HEAD IN LAYER   2 AT END OF TIME STEP  98 IN STRESS PERIOD    2
  ---------------------------------------------------------------------------

            1           2           3           4           5
 ............................................................
   1    9.998       7.499       5.000       2.502      2.9983E-03
   2    9.998       7.499       5.000       2.502      2.9983E-03
   3    9.998       7.499       5.000       2.502      2.9983E-03
   4    9.998       7.499       5.000       2.502      2.9983E-03
   5    9.998       7.499       5.000       2.502      2.9983E-03
1
              HEAD IN LAYER   3 AT END OF TIME STEP  98 IN STRESS PERIOD    2
  ---------------------------------------------------------------------------

            1           2           3           4           5
 ............................................................
   1    9.998       7.499       5.000       2.502      2.9983E-03
   2    9.998       7.499       5.000       2.502      2.9983E-03
   3    9.998       7.499       5.000       2.502      2.9983E-03
   4    9.998       7.499       5.000       2.502      2.9983E-03
   5    9.998       7.499       5.000       2.502      2.9983E-03
1
              HEAD IN LAYER   4 AT END OF TIME STEP  98 IN STRESS PERIOD    2
  ---------------------------------------------------------------------------

            1           2           3           4           5
 ............................................................
   1    9.998       7.499       5.000       2.502      2.9983E-03
   2    9.998       7.499       5.000       2.502      2.9983E-03
   3    9.998       7.499       5.000       2.502      2.9983E-03
   4    9.998       7.499       5.000       2.502      2.9983E-03
   5    9.998       7.499       5.000       2.502      2.9983E-03
1
              HEAD IN LAYER   5 AT END OF TIME STEP  98 IN STRESS PERIOD    2
  ---------------------------------------------------------------------------

            1           2           3           4           5
 ............................................................
   1    9.998       7.499       5.000       2.502      2.9983E-03
   2    9.998       7.499       5.000       2.502      2.9983E-03
   3    9.998       7.499       5.000       2.502      2.9983E-03
   4    9.998       7.499       5.000       2.502      2.9983E-03
   5    9.998       7.499       5.000       2.502      2.9983E-03

 HEAD WILL BE SAVED ON UNIT   51 AT END OF TIME STEP   98, STRESS PERIOD    2

 DRAWDOWN WILL BE SAVED ON UNIT   52 AT END OF TIME STEP   98, STRESS PERIOD    2
1
  VOLUMETRIC BUDGET FOR ENTIRE MODEL AT END OF TIME STEP   98, STRESS PERIOD   2
  ------------------------------------------------------------------------------

     CUMULATIVE VOLUMES      L**3       RATES FOR THIS TIME STEP      L**3/T
     ------------------                 ------------------------

           IN:                                      IN:
           ---                                      ---
             STORAGE =           0.0000               STORAGE =           0.0000
       CONSTANT HEAD =           0.0000         CONSTANT HEAD =           0.0000
               WELLS =           0.0000                 WELLS =           0.0000
     HEAD DEP BOUNDS =       85077.2031       HEAD DEP BOUNDS =         749.5204

            TOTAL IN =       85077.2031              TOTAL IN =         749.5204

          OUT:                                     OUT:
          ----                                     ----
             STORAGE =       15001.0732               STORAGE =       2.2896E-03
       CONSTANT HEAD =           0.0000         CONSTANT HEAD =           0.0000
               WELLS =           0.0000                 WELLS =           0.0000
     HEAD DEP BOUNDS =       70080.1719       HEAD DEP BOUNDS =         749.5866

           TOTAL OUT =       85081.2422             TOTAL OUT =         749.5889

            IN - OUT =          -4.0391              IN - OUT =      -6.8542E-02

 PERCENT DISCREPANCY =          -0.00     PERCENT DISCREPANCY =          -0.01






         TIME SUMMARY AT END OF TIME STEP   98 IN STRESS PERIOD    2
                    SECONDS     MINUTES      HOURS       DAYS        YEARS
                    -----------------------------------------------------------
   TIME STEP LENGTH  86400.      1440.0      24.000      1.0000     2.73785E-03
 STRESS PERIOD TIME 8.46720E+06 1.41120E+05  2352.0      98.000     0.26831    
         TOTAL TIME 8.55360E+06 1.42560E+05  2376.0      99.000     0.27105    
1
 
 SOLVING FOR HEAD 

 OUTPUT CONTROL FOR STRESS PERIOD    2   TIME STEP   99
    SAVE HEAD FOR ALL LAYERS
    SAVE DRAWDOWN FOR ALL LAYERS
    SAVE BUDGET
    PRINT HEAD FOR ALL LAYERS
    PRINT BUDGET
 UBDSV1 SAVING "         STORAGE" ON UNIT  53 AT TIME STEP 99, STRESS PERIOD   2
 UBDSV2 SAVING "   CONSTANT HEAD" ON UNIT  53 AT TIME STEP 99, STRESS PERIOD   2
 UBDSV1 SAVING "FLOW RIGHT FACE " ON UNIT  53 AT TIME STEP 99, STRESS PERIOD   2
 UBDSV1 SAVING "FLOW FRONT FACE " ON UNIT  53 AT TIME STEP 99, STRESS PERIOD   2
 UBDSV1 SAVING "FLOW LOWER FACE " ON UNIT  53 AT TIME STEP 99, STRESS PERIOD   2
1
              HEAD IN LAYER   1 AT END OF TIME STEP  99 IN STRESS PERIOD    2
  ---------------------------------------------------------------------------

            1           2           3           4           5
 ............................................................
   1    9.998       7.499       5.000       2.502      2.9983E-03
   2    9.998       7.499       5.000       2.502      2.9983E-03
   3    9.998       7.499       5.000       2.502      2.9983E-03
   4    9.998       7.499       5.000       2.502      2.9983E-03
   5    9.998       7.499       5.000       2.502      2.9983E-03
1
              HEAD IN LAYER   2 AT END OF TIME STEP  99 IN STRESS PERIOD    2
  ---------------------------------------------------------------------------

            1           2           3           4           5
 ............................................................
   1    9.998       7.499       5.000       2.502      2.9983E-03
   2    9.998       7.499       5.000       2.502      2.9983E-03
   3    9.998       7.499       5.000       2.502      2.9983E-03
   4    9.998       7.499       5.000       2.502      2.9983E-03
   5    9.998       7.499       5.000       2.502      2.9983E-03
1
              HEAD IN LAYER   3 AT END OF TIME STEP  99 IN STRESS PERIOD    2
  ---------------------------------------------------------------------------

            1           2           3           4           5
 ............................................................
   1    9.998       7.499       5.000       2.502      2.9983E-03
   2    9.998       7.499       5.000       2.502      2.9983E-03
   3    9.998       7.499       5.000       2.502      2.9983E-03
   4    9.998       7.499       5.000       2.502      2.9983E-03
   5    9.998       7.499       5.000       2.502      2.9983E-03
1
              HEAD IN LAYER   4 AT END OF TIME STEP  99 IN STRESS PERIOD    2
  ---------------------------------------------------------------------------

            1           2           3           4           5
 ............................................................
   1    9.998       7.499       5.000       2.502      2.9983E-03
   2    9.998       7.499       5.000       2.502      2.9983E-03
   3    9.998       7.499       5.000       2.502      2.9983E-03
   4    9.998       7.499       5.000       2.502      2.9983E-03
   5    9.998       7.499       5.000       2.502      2.9983E-03
1
              HEAD IN LAYER   5 AT END OF TIME STEP  99 IN STRESS PERIOD    2
  ---------------------------------------------------------------------------

            1           2           3           4           5
 ............................................................
   1    9.998       7.499       5.000       2.502      2.9983E-03
   2    9.998       7.499       5.000       2.502      2.9983E-03
   3    9.998       7.499       5.000       2.502      2.9983E-03
   4    9.998       7.499       5.000       2.502      2.9983E-03
   5    9.998       7.499       5.000       2.502      2.9983E-03

 HEAD WILL BE SAVED ON UNIT   51 AT END OF TIME STEP   99, STRESS PERIOD    2

 DRAWDOWN WILL BE SAVED ON UNIT   52 AT END OF TIME STEP   99, STRESS PERIOD    2
1
  VOLUMETRIC BUDGET FOR ENTIRE MODEL AT END OF TIME STEP   99, STRESS PERIOD   2
  ------------------------------------------------------------------------------

     CUMULATIVE VOLUMES      L**3       RATES FOR THIS TIME STEP      L**3/T
     ------------------                 ------------------------

           IN:                                      IN:
           ---                                      ---
             STORAGE =           0.0000               STORAGE =           0.0000
       CONSTANT HEAD =           0.0000         CONSTANT HEAD =           0.0000
               WELLS =           0.0000                 WELLS =           0.0000
     HEAD DEP BOUNDS =       85826.7266       HEAD DEP BOUNDS =         749.5203

            TOTAL IN =       85826.7266              TOTAL IN =         749.5203

          OUT:                                     OUT:
          ----                                     ----
             STORAGE =       15001.0752               STORAGE =       1.7173E-03
       CONSTANT HEAD =           0.0000         CONSTANT HEAD =           0.0000
               WELLS =           0.0000                 WELLS =           0.0000
     HEAD DEP BOUNDS =       70829.7578       HEAD DEP BOUNDS =         749.5867

           TOTAL OUT =       85830.8359             TOTAL OUT =         749.5884

            IN - OUT =          -4.1094              IN - OUT =      -6.8115E-02

 PERCENT DISCREPANCY =          -0.00     PERCENT DISCREPANCY =          -0.01






         TIME SUMMARY AT END OF TIME STEP   99 IN STRESS PERIOD    2
                    SECONDS     MINUTES      HOURS       DAYS        YEARS
                    -----------------------------------------------------------
   TIME STEP LENGTH  86400.      1440.0      24.000      1.0000     2.73785E-03
 STRESS PERIOD TIME 8.55360E+06 1.42560E+05  2376.0      99.000     0.27105    
         TOTAL TIME 8.64000E+06 1.44000E+05  2400.0      100.00     0.27379    
1
 
 SOLVING FOR HEAD 

 OUTPUT CONTROL FOR STRESS PERIOD    2   TIME STEP  100
    SAVE HEAD FOR ALL LAYERS
    SAVE DRAWDOWN FOR ALL LAYERS
    SAVE BUDGET
    PRINT HEAD FOR ALL LAYERS
    PRINT BUDGET
 UBDSV1 SAVING "         STORAGE" ON UNIT  53 AT TIME STEP100, STRESS PERIOD   2
 UBDSV2 SAVING "   CONSTANT HEAD" ON UNIT  53 AT TIME STEP100, STRESS PERIOD   2
 UBDSV1 SAVING "FLOW RIGHT FACE " ON UNIT  53 AT TIME STEP100, STRESS PERIOD   2
 UBDSV1 SAVING "FLOW FRONT FACE " ON UNIT  53 AT TIME STEP100, STRESS PERIOD   2
 UBDSV1 SAVING "FLOW LOWER FACE " ON UNIT  53 AT TIME STEP100, STRESS PERIOD   2
1
              HEAD IN LAYER   1 AT END OF TIME STEP 100 IN STRESS PERIOD    2
  ---------------------------------------------------------------------------

            1           2           3           4           5
 ............................................................
   1    9.998       7.499       5.000       2.502      2.9983E-03
   2    9.998       7.499       5.000       2.502      2.9983E-03
   3    9.998       7.499       5.000       2.502      2.9983E-03
   4    9.998       7.499       5.000       2.502      2.9983E-03
   5    9.998       7.499       5.000       2.502      2.9983E-03
1
              HEAD IN LAYER   2 AT END OF TIME STEP 100 IN STRESS PERIOD    2
  ---------------------------------------------------------------------------

            1           2           3           4           5
 ............................................................
   1    9.998       7.499       5.000       2.502      2.9983E-03
   2    9.998       7.499       5.000       2.502      2.9983E-03
   3    9.998       7.499       5.000       2.502      2.9983E-03
   4    9.998       7.499       5.000       2.502      2.9983E-03
   5    9.998       7.499       5.000       2.502      2.9983E-03
1
              HEAD IN LAYER   3 AT END OF TIME STEP 100 IN STRESS PERIOD    2
  ---------------------------------------------------------------------------

            1           2           3           4           5
 ............................................................
   1    9.998       7.499       5.000       2.502      2.9983E-03
   2    9.998       7.499       5.000       2.502      2.9983E-03
   3    9.998       7.499       5.000       2.502      2.9983E-03
   4    9.998       7.499       5.000       2.502      2.9983E-03
   5    9.998       7.499       5.000       2.502      2.9983E-03
1
              HEAD IN LAYER   4 AT END OF TIME STEP 100 IN STRESS PERIOD    2
  ---------------------------------------------------------------------------

            1           2           3           4           5
 ............................................................
   1    9.998       7.499       5.000       2.502      2.9983E-03
   2    9.998       7.499       5.000       2.502      2.9983E-03
   3    9.998       7.499       5.000       2.502      2.9983E-03
   4    9.998       7.499       5.000       2.502      2.9983E-03
   5    9.998       7.499       5.000       2.502      2.9983E-03
1
              HEAD IN LAYER   5 AT END OF TIME STEP 100 IN STRESS PERIOD    2
  ---------------------------------------------------------------------------

            1           2           3           4           5
 ............................................................
   1    9.998       7.499       5.000       2.502      2.9983E-03
   2    9.998       7.499       5.000       2.502      2.9983E-03
   3    9.998       7.499       5.000       2.502      2.9983E-03
   4    9.998       7.499       5.000       2.502      2.9983E-03
   5    9.998       7.499       5.000       2.502      2.9983E-03

 HEAD WILL BE SAVED ON UNIT   51 AT END OF TIME STEP  100, STRESS PERIOD    2

 DRAWDOWN WILL BE SAVED ON UNIT   52 AT END OF TIME STEP  100, STRESS PERIOD    2
1
  VOLUMETRIC BUDGET FOR ENTIRE MODEL AT END OF TIME STEP  100, STRESS PERIOD   2
  ------------------------------------------------------------------------------

     CUMULATIVE VOLUMES      L**3       RATES FOR THIS TIME STEP      L**3/T
     ------------------                 ------------------------

           IN:                                      IN:
           ---                                      ---
             STORAGE =           0.0000               STORAGE =           0.0000
       CONSTANT HEAD =           0.0000         CONSTANT HEAD =           0.0000
               WELLS =           0.0000                 WELLS =           0.0000
     HEAD DEP BOUNDS =       86576.2500       HEAD DEP BOUNDS =         749.5202

            TOTAL IN =       86576.2500              TOTAL IN =         749.5202

          OUT:                                     OUT:
          ----                                     ----
             STORAGE =       15001.0762               STORAGE =       1.4311E-03
       CONSTANT HEAD =           0.0000         CONSTANT HEAD =           0.0000
               WELLS =           0.0000                 WELLS =           0.0000
     HEAD DEP BOUNDS =       71579.3438       HEAD DEP BOUNDS =         749.5869

           TOTAL OUT =       86580.4219             TOTAL OUT =         749.5883

            IN - OUT =          -4.1719              IN - OUT =      -6.8054E-02

 PERCENT DISCREPANCY =          -0.00     PERCENT DISCREPANCY =          -0.01






         TIME SUMMARY AT END OF TIME STEP  100 IN STRESS PERIOD    2
                    SECONDS     MINUTES      HOURS       DAYS        YEARS
                    -----------------------------------------------------------
   TIME STEP LENGTH  86400.      1440.0      24.000      1.0000     2.73785E-03
 STRESS PERIOD TIME 8.64000E+06 1.44000E+05  2400.0      100.00     0.27379    
         TOTAL TIME 8.72640E+06 1.45440E+05  2424.0      101.00     0.27652    
1
1
                            STRESS PERIOD NO.    3, LENGTH =   100.0000    
                            -----------------------------------------------

                              NUMBER OF TIME STEPS =   100

                               MULTIPLIER FOR DELT =     1.000

                            INITIAL TIME STEP SIZE =   1.000000    

 WELL NO.  LAYER   ROW   COL   STRESS RATE         
 --------------------------------------------------
      1      1      2      2       0.000    

      1 WELL 

 REUSING NON-PARAMETER GHB CELLS FROM LAST STRESS PERIOD

     50 GHB CELLS
 
 SOLVING FOR HEAD 

 OUTPUT CONTROL FOR STRESS PERIOD    3   TIME STEP    1
    SAVE HEAD FOR ALL LAYERS
    SAVE DRAWDOWN FOR ALL LAYERS
    SAVE BUDGET
    PRINT HEAD FOR ALL LAYERS
    PRINT BUDGET
 UBDSV1 SAVING "         STORAGE" ON UNIT  53 AT TIME STEP  1, STRESS PERIOD   3
 UBDSV2 SAVING "   CONSTANT HEAD" ON UNIT  53 AT TIME STEP  1, STRESS PERIOD   3
 UBDSV1 SAVING "FLOW RIGHT FACE " ON UNIT  53 AT TIME STEP  1, STRESS PERIOD   3
 UBDSV1 SAVING "FLOW FRONT FACE " ON UNIT  53 AT TIME STEP  1, STRESS PERIOD   3
 UBDSV1 SAVING "FLOW LOWER FACE " ON UNIT  53 AT TIME STEP  1, STRESS PERIOD   3
1
              HEAD IN LAYER   1 AT END OF TIME STEP   1 IN STRESS PERIOD    3
  ---------------------------------------------------------------------------

            1           2           3           4           5
 ............................................................
   1    9.998       7.499       5.000       2.502      2.9983E-03
   2    9.998       7.499       5.000       2.502      2.9983E-03
   3    9.998       7.499       5.000       2.502      2.9983E-03
   4    9.998       7.499       5.000       2.502      2.9983E-03
   5    9.998       7.499       5.000       2.502      2.9983E-03
1
              HEAD IN LAYER   2 AT END OF TIME STEP   1 IN STRESS PERIOD    3
  ---------------------------------------------------------------------------

            1           2           3           4           5
 ............................................................
   1    9.998       7.499       5.000       2.502      2.9983E-03
   2    9.998       7.499       5.000       2.502      2.9983E-03
   3    9.998       7.499       5.000       2.502      2.9983E-03
   4    9.998       7.499       5.000       2.502      2.9983E-03
   5    9.998       7.499       5.000       2.502      2.9983E-03
1
              HEAD IN LAYER   3 AT END OF TIME STEP   1 IN STRESS PERIOD    3
  ---------------------------------------------------------------------------

            1           2           3           4           5
 ............................................................
   1    9.998       7.499       5.000       2.502      2.9983E-03
   2    9.998       7.499       5.000       2.502      2.9983E-03
   3    9.998       7.499       5.000       2.502      2.9983E-03
   4    9.998       7.499       5.000       2.502      2.9983E-03
   5    9.998       7.499       5.000       2.502      2.9983E-03
1
              HEAD IN LAYER   4 AT END OF TIME STEP   1 IN STRESS PERIOD    3
  ---------------------------------------------------------------------------

            1           2           3           4           5
 ............................................................
   1    9.998       7.499       5.000       2.502      2.9983E-03
   2    9.998       7.499       5.000       2.502      2.9983E-03
   3    9.998       7.499       5.000       2.502      2.9983E-03
   4    9.998       7.499       5.000       2.502      2.9983E-03
   5    9.998       7.499       5.000       2.502      2.9983E-03
1
              HEAD IN LAYER   5 AT END OF TIME STEP   1 IN STRESS PERIOD    3
  ---------------------------------------------------------------------------

            1           2           3           4           5
 ............................................................
   1    9.998       7.499       5.000       2.502      2.9983E-03
   2    9.998       7.499       5.000       2.502      2.9983E-03
   3    9.998       7.499       5.000       2.502      2.9983E-03
   4    9.998       7.499       5.000       2.502      2.9983E-03
   5    9.998       7.499       5.000       2.502      2.9983E-03

 HEAD WILL BE SAVED ON UNIT   51 AT END OF TIME STEP    1, STRESS PERIOD    3

 DRAWDOWN WILL BE SAVED ON UNIT   52 AT END OF TIME STEP    1, STRESS PERIOD    3
1
  VOLUMETRIC BUDGET FOR ENTIRE MODEL AT END OF TIME STEP    1, STRESS PERIOD   3
  ------------------------------------------------------------------------------

     CUMULATIVE VOLUMES      L**3       RATES FOR THIS TIME STEP      L**3/T
     ------------------                 ------------------------

           IN:                                      IN:
           ---                                      ---
             STORAGE =           0.0000               STORAGE =           0.0000
       CONSTANT HEAD =           0.0000         CONSTANT HEAD =           0.0000
               WELLS =           0.0000                 WELLS =           0.0000
     HEAD DEP BOUNDS =       87325.7734       HEAD DEP BOUNDS =         749.5200

            TOTAL IN =       87325.7734              TOTAL IN =         749.5200

          OUT:                                     OUT:
          ----                                     ----
             STORAGE =       15001.0771               STORAGE =       1.4425E-03
       CONSTANT HEAD =           0.0000         CONSTANT HEAD =           0.0000
               WELLS =           0.0000                 WELLS =           0.0000
     HEAD DEP BOUNDS =       72328.9297       HEAD DEP BOUNDS =         749.5870

           TOTAL OUT =       87330.0078             TOTAL OUT =         749.5884

            IN - OUT =          -4.2344              IN - OUT =      -6.8420E-02

 PERCENT DISCREPANCY =          -0.00     PERCENT DISCREPANCY =          -0.01






         TIME SUMMARY AT END OF TIME STEP    1 IN STRESS PERIOD    3
                    SECONDS     MINUTES      HOURS       DAYS        YEARS
                    -----------------------------------------------------------
   TIME STEP LENGTH  86400.      1440.0      24.000      1.0000     2.73785E-03
 STRESS PERIOD TIME  86400.      1440.0      24.000      1.0000     2.73785E-03
         TOTAL TIME 8.81280E+06 1.46880E+05  2448.0      102.00     0.27926    
1
 
 SOLVING FOR HEAD 

 OUTPUT CONTROL FOR STRESS PERIOD    3   TIME STEP    2
    SAVE HEAD FOR ALL LAYERS
    SAVE DRAWDOWN FOR ALL LAYERS
    SAVE BUDGET
    PRINT HEAD FOR ALL LAYERS
    PRINT BUDGET
 UBDSV1 SAVING "         STORAGE" ON UNIT  53 AT TIME STEP  2, STRESS PERIOD   3
 UBDSV2 SAVING "   CONSTANT HEAD" ON UNIT  53 AT TIME STEP  2, STRESS PERIOD   3
 UBDSV1 SAVING "FLOW RIGHT FACE " ON UNIT  53 AT TIME STEP  2, STRESS PERIOD   3
 UBDSV1 SAVING "FLOW FRONT FACE " ON UNIT  53 AT TIME STEP  2, STRESS PERIOD   3
 UBDSV1 SAVING "FLOW LOWER FACE " ON UNIT  53 AT TIME STEP  2, STRESS PERIOD   3
1
              HEAD IN LAYER   1 AT END OF TIME STEP   2 IN STRESS PERIOD    3
  ---------------------------------------------------------------------------

            1           2           3           4           5
 ............................................................
   1    9.998       7.499       5.000       2.502      2.9983E-03
   2    9.998       7.499       5.000       2.502      2.9983E-03
   3    9.998       7.499       5.000       2.502      2.9983E-03
   4    9.998       7.499       5.000       2.502      2.9983E-03
   5    9.998       7.499       5.000       2.502      2.9983E-03
1
              HEAD IN LAYER   2 AT END OF TIME STEP   2 IN STRESS PERIOD    3
  ---------------------------------------------------------------------------

            1           2           3           4           5
 ............................................................
   1    9.998       7.499       5.000       2.502      2.9983E-03
   2    9.998       7.499       5.000       2.502      2.9983E-03
   3    9.998       7.499       5.000       2.502      2.9983E-03
   4    9.998       7.499       5.000       2.502      2.9983E-03
   5    9.998       7.499       5.000       2.502      2.9983E-03
1
              HEAD IN LAYER   3 AT END OF TIME STEP   2 IN STRESS PERIOD    3
  ---------------------------------------------------------------------------

            1           2           3           4           5
 ............................................................
   1    9.998       7.499       5.000       2.502      2.9983E-03
   2    9.998       7.499       5.000       2.502      2.9983E-03
   3    9.998       7.499       5.000       2.502      2.9983E-03
   4    9.998       7.499       5.000       2.502      2.9983E-03
   5    9.998       7.499       5.000       2.502      2.9983E-03
1
              HEAD IN LAYER   4 AT END OF TIME STEP   2 IN STRESS PERIOD    3
  ---------------------------------------------------------------------------

            1           2           3           4           5
 ............................................................
   1    9.998       7.499       5.000       2.502      2.9983E-03
   2    9.998       7.499       5.000       2.502      2.9983E-03
   3    9.998       7.499       5.000       2.502      2.9983E-03
   4    9.998       7.499       5.000       2.502      2.9983E-03
   5    9.998       7.499       5.000       2.502      2.9983E-03
1
              HEAD IN LAYER   5 AT END OF TIME STEP   2 IN STRESS PERIOD    3
  ---------------------------------------------------------------------------

            1           2           3           4           5
 ............................................................
   1    9.998       7.499       5.000       2.502      2.9983E-03
   2    9.998       7.499       5.000       2.502      2.9983E-03
   3    9.998       7.499       5.000       2.502      2.9983E-03
   4    9.998       7.499       5.000       2.502      2.9983E-03
   5    9.998       7.499       5.000       2.502      2.9983E-03

 HEAD WILL BE SAVED ON UNIT   51 AT END OF TIME STEP    2, STRESS PERIOD    3

 DRAWDOWN WILL BE SAVED ON UNIT   52 AT END OF TIME STEP    2, STRESS PERIOD    3
1
  VOLUMETRIC BUDGET FOR ENTIRE MODEL AT END OF TIME STEP    2, STRESS PERIOD   3
  ------------------------------------------------------------------------------

     CUMULATIVE VOLUMES      L**3       RATES FOR THIS TIME STEP      L**3/T
     ------------------                 ------------------------

           IN:                                      IN:
           ---                                      ---
             STORAGE =           0.0000               STORAGE =           0.0000
       CONSTANT HEAD =           0.0000         CONSTANT HEAD =           0.0000
               WELLS =           0.0000                 WELLS =           0.0000
     HEAD DEP BOUNDS =       88075.2969       HEAD DEP BOUNDS =         749.5200

            TOTAL IN =       88075.2969              TOTAL IN =         749.5200

          OUT:                                     OUT:
          ----                                     ----
             STORAGE =       15001.0781               STORAGE =       8.4714E-04
       CONSTANT HEAD =           0.0000         CONSTANT HEAD =           0.0000
               WELLS =           0.0000                 WELLS =           0.0000
     HEAD DEP BOUNDS =       73078.5156       HEAD DEP BOUNDS =         749.5870

           TOTAL OUT =       88079.5938             TOTAL OUT =         749.5879

            IN - OUT =          -4.2969              IN - OUT =      -6.7871E-02

 PERCENT DISCREPANCY =          -0.00     PERCENT DISCREPANCY =          -0.01






         TIME SUMMARY AT END OF TIME STEP    2 IN STRESS PERIOD    3
                    SECONDS     MINUTES      HOURS       DAYS        YEARS
                    -----------------------------------------------------------
   TIME STEP LENGTH  86400.      1440.0      24.000      1.0000     2.73785E-03
 STRESS PERIOD TIME 1.72800E+05  2880.0      48.000      2.0000     5.47570E-03
         TOTAL TIME 8.89920E+06 1.48320E+05  2472.0      103.00     0.28200    
1
 
 SOLVING FOR HEAD 

 OUTPUT CONTROL FOR STRESS PERIOD    3   TIME STEP    3
    SAVE HEAD FOR ALL LAYERS
    SAVE DRAWDOWN FOR ALL LAYERS
    SAVE BUDGET
    PRINT HEAD FOR ALL LAYERS
    PRINT BUDGET
 UBDSV1 SAVING "         STORAGE" ON UNIT  53 AT TIME STEP  3, STRESS PERIOD   3
 UBDSV2 SAVING "   CONSTANT HEAD" ON UNIT  53 AT TIME STEP  3, STRESS PERIOD   3
 UBDSV1 SAVING "FLOW RIGHT FACE " ON UNIT  53 AT TIME STEP  3, STRESS PERIOD   3
 UBDSV1 SAVING "FLOW FRONT FACE " ON UNIT  53 AT TIME STEP  3, STRESS PERIOD   3
 UBDSV1 SAVING "FLOW LOWER FACE " ON UNIT  53 AT TIME STEP  3, STRESS PERIOD   3
1
              HEAD IN LAYER   1 AT END OF TIME STEP   3 IN STRESS PERIOD    3
  ---------------------------------------------------------------------------

            1           2           3           4           5
 ............................................................
   1    9.998       7.499       5.000       2.502      2.9983E-03
   2    9.998       7.499       5.000       2.502      2.9983E-03
   3    9.998       7.499       5.000       2.502      2.9983E-03
   4    9.998       7.499       5.000       2.502      2.9983E-03
   5    9.998       7.499       5.000       2.502      2.9983E-03
1
              HEAD IN LAYER   2 AT END OF TIME STEP   3 IN STRESS PERIOD    3
  ---------------------------------------------------------------------------

            1           2           3           4           5
 ............................................................
   1    9.998       7.499       5.000       2.502      2.9983E-03
   2    9.998       7.499       5.000       2.502      2.9983E-03
   3    9.998       7.499       5.000       2.502      2.9983E-03
   4    9.998       7.499       5.000       2.502      2.9983E-03
   5    9.998       7.499       5.000       2.502      2.9983E-03
1
              HEAD IN LAYER   3 AT END OF TIME STEP   3 IN STRESS PERIOD    3
  ---------------------------------------------------------------------------

            1           2           3           4           5
 ............................................................
   1    9.998       7.499       5.000       2.502      2.9983E-03
   2    9.998       7.499       5.000       2.502      2.9983E-03
   3    9.998       7.499       5.000       2.502      2.9983E-03
   4    9.998       7.499       5.000       2.502      2.9983E-03
   5    9.998       7.499       5.000       2.502      2.9983E-03
1
              HEAD IN LAYER   4 AT END OF TIME STEP   3 IN STRESS PERIOD    3
  ---------------------------------------------------------------------------

            1           2           3           4           5
 ............................................................
   1    9.998       7.499       5.000       2.502      2.9983E-03
   2    9.998       7.499       5.000       2.502      2.9983E-03
   3    9.998       7.499       5.000       2.502      2.9983E-03
   4    9.998       7.499       5.000       2.502      2.9983E-03
   5    9.998       7.499       5.000       2.502      2.9983E-03
1
              HEAD IN LAYER   5 AT END OF TIME STEP   3 IN STRESS PERIOD    3
  ---------------------------------------------------------------------------

            1           2           3           4           5
 ............................................................
   1    9.998       7.499       5.000       2.502      2.9983E-03
   2    9.998       7.499       5.000       2.502      2.9983E-03
   3    9.998       7.499       5.000       2.502      2.9983E-03
   4    9.998       7.499       5.000       2.502      2.9983E-03
   5    9.998       7.499       5.000       2.502      2.9983E-03

 HEAD WILL BE SAVED ON UNIT   51 AT END OF TIME STEP    3, STRESS PERIOD    3

 DRAWDOWN WILL BE SAVED ON UNIT   52 AT END OF TIME STEP    3, STRESS PERIOD    3
1
  VOLUMETRIC BUDGET FOR ENTIRE MODEL AT END OF TIME STEP    3, STRESS PERIOD   3
  ------------------------------------------------------------------------------

     CUMULATIVE VOLUMES      L**3       RATES FOR THIS TIME STEP      L**3/T
     ------------------                 ------------------------

           IN:                                      IN:
           ---                                      ---
             STORAGE =           0.0000               STORAGE =           0.0000
       CONSTANT HEAD =           0.0000         CONSTANT HEAD =           0.0000
               WELLS =           0.0000                 WELLS =           0.0000
     HEAD DEP BOUNDS =       88824.8203       HEAD DEP BOUNDS =         749.5200

            TOTAL IN =       88824.8203              TOTAL IN =         749.5200

          OUT:                                     OUT:
          ----                                     ----
             STORAGE =       15001.0791               STORAGE =       8.5860E-04
       CONSTANT HEAD =           0.0000         CONSTANT HEAD =           0.0000
               WELLS =           0.0000                 WELLS =           0.0000
     HEAD DEP BOUNDS =       73828.1016       HEAD DEP BOUNDS =         749.5871

           TOTAL OUT =       88829.1797             TOTAL OUT =         749.5880

            IN - OUT =          -4.3594              IN - OUT =      -6.7993E-02

 PERCENT DISCREPANCY =          -0.00     PERCENT DISCREPANCY =          -0.01






         TIME SUMMARY AT END OF TIME STEP    3 IN STRESS PERIOD    3
                    SECONDS     MINUTES      HOURS       DAYS        YEARS
                    -----------------------------------------------------------
   TIME STEP LENGTH  86400.      1440.0      24.000      1.0000     2.73785E-03
 STRESS PERIOD TIME 2.59200E+05  4320.0      72.000      3.0000     8.21355E-03
         TOTAL TIME 8.98560E+06 1.49760E+05  2496.0      104.00     0.28474    
1
 
 SOLVING FOR HEAD 

 OUTPUT CONTROL FOR STRESS PERIOD    3   TIME STEP    4
    SAVE HEAD FOR ALL LAYERS
    SAVE DRAWDOWN FOR ALL LAYERS
    SAVE BUDGET
    PRINT HEAD FOR ALL LAYERS
    PRINT BUDGET
 UBDSV1 SAVING "         STORAGE" ON UNIT  53 AT TIME STEP  4, STRESS PERIOD   3
 UBDSV2 SAVING "   CONSTANT HEAD" ON UNIT  53 AT TIME STEP  4, STRESS PERIOD   3
 UBDSV1 SAVING "FLOW RIGHT FACE " ON UNIT  53 AT TIME STEP  4, STRESS PERIOD   3
 UBDSV1 SAVING "FLOW FRONT FACE " ON UNIT  53 AT TIME STEP  4, STRESS PERIOD   3
 UBDSV1 SAVING "FLOW LOWER FACE " ON UNIT  53 AT TIME STEP  4, STRESS PERIOD   3
1
              HEAD IN LAYER   1 AT END OF TIME STEP   4 IN STRESS PERIOD    3
  ---------------------------------------------------------------------------

            1           2           3           4           5
 ............................................................
   1    9.998       7.499       5.000       2.502      2.9983E-03
   2    9.998       7.499       5.000       2.502      2.9983E-03
   3    9.998       7.499       5.000       2.502      2.9983E-03
   4    9.998       7.499       5.000       2.502      2.9983E-03
   5    9.998       7.499       5.000       2.502      2.9983E-03
1
              HEAD IN LAYER   2 AT END OF TIME STEP   4 IN STRESS PERIOD    3
  ---------------------------------------------------------------------------

            1           2           3           4           5
 ............................................................
   1    9.998       7.499       5.000       2.502      2.9983E-03
   2    9.998       7.499       5.000       2.502      2.9983E-03
   3    9.998       7.499       5.000       2.502      2.9983E-03
   4    9.998       7.499       5.000       2.502      2.9983E-03
   5    9.998       7.499       5.000       2.502      2.9983E-03
1
              HEAD IN LAYER   3 AT END OF TIME STEP   4 IN STRESS PERIOD    3
  ---------------------------------------------------------------------------

            1           2           3           4           5
 ............................................................
   1    9.998       7.499       5.000       2.502      2.9983E-03
   2    9.998       7.499       5.000       2.502      2.9983E-03
   3    9.998       7.499       5.000       2.502      2.9983E-03
   4    9.998       7.499       5.000       2.502      2.9983E-03
   5    9.998       7.499       5.000       2.502      2.9983E-03
1
              HEAD IN LAYER   4 AT END OF TIME STEP   4 IN STRESS PERIOD    3
  ---------------------------------------------------------------------------

            1           2           3           4           5
 ............................................................
   1    9.998       7.499       5.000       2.502      2.9983E-03
   2    9.998       7.499       5.000       2.502      2.9983E-03
   3    9.998       7.499       5.000       2.502      2.9983E-03
   4    9.998       7.499       5.000       2.502      2.9983E-03
   5    9.998       7.499       5.000       2.502      2.9983E-03
1
              HEAD IN LAYER   5 AT END OF TIME STEP   4 IN STRESS PERIOD    3
  ---------------------------------------------------------------------------

            1           2           3           4           5
 ............................................................
   1    9.998       7.499       5.000       2.502      2.9983E-03
   2    9.998       7.499       5.000       2.502      2.9983E-03
   3    9.998       7.499       5.000       2.502      2.9983E-03
   4    9.998       7.499       5.000       2.502      2.9983E-03
   5    9.998       7.499       5.000       2.502      2.9983E-03

 HEAD WILL BE SAVED ON UNIT   51 AT END OF TIME STEP    4, STRESS PERIOD    3

 DRAWDOWN WILL BE SAVED ON UNIT   52 AT END OF TIME STEP    4, STRESS PERIOD    3
1
  VOLUMETRIC BUDGET FOR ENTIRE MODEL AT END OF TIME STEP    4, STRESS PERIOD   3
  ------------------------------------------------------------------------------

     CUMULATIVE VOLUMES      L**3       RATES FOR THIS TIME STEP      L**3/T
     ------------------                 ------------------------

           IN:                                      IN:
           ---                                      ---
             STORAGE =           0.0000               STORAGE =           0.0000
       CONSTANT HEAD =           0.0000         CONSTANT HEAD =           0.0000
               WELLS =           0.0000                 WELLS =           0.0000
     HEAD DEP BOUNDS =       89574.3438       HEAD DEP BOUNDS =         749.5200

            TOTAL IN =       89574.3438              TOTAL IN =         749.5200

          OUT:                                     OUT:
          ----                                     ----
             STORAGE =       15001.0791               STORAGE =       2.8637E-04
       CONSTANT HEAD =           0.0000         CONSTANT HEAD =           0.0000
               WELLS =           0.0000                 WELLS =           0.0000
     HEAD DEP BOUNDS =       74577.6875       HEAD DEP BOUNDS =         749.5872

           TOTAL OUT =       89578.7656             TOTAL OUT =         749.5875

            IN - OUT =          -4.4219              IN - OUT =      -6.7505E-02

 PERCENT DISCREPANCY =          -0.00     PERCENT DISCREPANCY =          -0.01






         TIME SUMMARY AT END OF TIME STEP    4 IN STRESS PERIOD    3
                    SECONDS     MINUTES      HOURS       DAYS        YEARS
                    -----------------------------------------------------------
   TIME STEP LENGTH  86400.      1440.0      24.000      1.0000     2.73785E-03
 STRESS PERIOD TIME 3.45600E+05  5760.0      96.000      4.0000     1.09514E-02
         TOTAL TIME 9.07200E+06 1.51200E+05  2520.0      105.00     0.28747    
1
 
 SOLVING FOR HEAD 

 OUTPUT CONTROL FOR STRESS PERIOD    3   TIME STEP    5
    SAVE HEAD FOR ALL LAYERS
    SAVE DRAWDOWN FOR ALL LAYERS
    SAVE BUDGET
    PRINT HEAD FOR ALL LAYERS
    PRINT BUDGET
 UBDSV1 SAVING "         STORAGE" ON UNIT  53 AT TIME STEP  5, STRESS PERIOD   3
 UBDSV2 SAVING "   CONSTANT HEAD" ON UNIT  53 AT TIME STEP  5, STRESS PERIOD   3
 UBDSV1 SAVING "FLOW RIGHT FACE " ON UNIT  53 AT TIME STEP  5, STRESS PERIOD   3
 UBDSV1 SAVING "FLOW FRONT FACE " ON UNIT  53 AT TIME STEP  5, STRESS PERIOD   3
 UBDSV1 SAVING "FLOW LOWER FACE " ON UNIT  53 AT TIME STEP  5, STRESS PERIOD   3
1
              HEAD IN LAYER   1 AT END OF TIME STEP   5 IN STRESS PERIOD    3
  ---------------------------------------------------------------------------

            1           2           3           4           5
 ............................................................
   1    9.998       7.499       5.000       2.502      2.9983E-03
   2    9.998       7.499       5.000       2.502      2.9983E-03
   3    9.998       7.499       5.000       2.502      2.9983E-03
   4    9.998       7.499       5.000       2.502      2.9983E-03
   5    9.998       7.499       5.000       2.502      2.9983E-03
1
              HEAD IN LAYER   2 AT END OF TIME STEP   5 IN STRESS PERIOD    3
  ---------------------------------------------------------------------------

            1           2           3           4           5
 ............................................................
   1    9.998       7.499       5.000       2.502      2.9983E-03
   2    9.998       7.499       5.000       2.502      2.9983E-03
   3    9.998       7.499       5.000       2.502      2.9983E-03
   4    9.998       7.499       5.000       2.502      2.9983E-03
   5    9.998       7.499       5.000       2.502      2.9983E-03
1
              HEAD IN LAYER   3 AT END OF TIME STEP   5 IN STRESS PERIOD    3
  ---------------------------------------------------------------------------

            1           2           3           4           5
 ............................................................
   1    9.998       7.499       5.000       2.502      2.9983E-03
   2    9.998       7.499       5.000       2.502      2.9983E-03
   3    9.998       7.499       5.000       2.502      2.9983E-03
   4    9.998       7.499       5.000       2.502      2.9983E-03
   5    9.998       7.499       5.000       2.502      2.9983E-03
1
              HEAD IN LAYER   4 AT END OF TIME STEP   5 IN STRESS PERIOD    3
  ---------------------------------------------------------------------------

            1           2           3           4           5
 ............................................................
   1    9.998       7.499       5.000       2.502      2.9983E-03
   2    9.998       7.499       5.000       2.502      2.9983E-03
   3    9.998       7.499       5.000       2.502      2.9983E-03
   4    9.998       7.499       5.000       2.502      2.9983E-03
   5    9.998       7.499       5.000       2.502      2.9983E-03
1
              HEAD IN LAYER   5 AT END OF TIME STEP   5 IN STRESS PERIOD    3
  ---------------------------------------------------------------------------

            1           2           3           4           5
 ............................................................
   1    9.998       7.499       5.000       2.502      2.9983E-03
   2    9.998       7.499       5.000       2.502      2.9983E-03
   3    9.998       7.499       5.000       2.502      2.9983E-03
   4    9.998       7.499       5.000       2.502      2.9983E-03
   5    9.998       7.499       5.000       2.502      2.9983E-03

 HEAD WILL BE SAVED ON UNIT   51 AT END OF TIME STEP    5, STRESS PERIOD    3

 DRAWDOWN WILL BE SAVED ON UNIT   52 AT END OF TIME STEP    5, STRESS PERIOD    3
1
  VOLUMETRIC BUDGET FOR ENTIRE MODEL AT END OF TIME STEP    5, STRESS PERIOD   3
  ------------------------------------------------------------------------------

     CUMULATIVE VOLUMES      L**3       RATES FOR THIS TIME STEP      L**3/T
     ------------------                 ------------------------

           IN:                                      IN:
           ---                                      ---
             STORAGE =           0.0000               STORAGE =           0.0000
       CONSTANT HEAD =           0.0000         CONSTANT HEAD =           0.0000
               WELLS =           0.0000                 WELLS =           0.0000
     HEAD DEP BOUNDS =       90323.8672       HEAD DEP BOUNDS =         749.5200

            TOTAL IN =       90323.8672              TOTAL IN =         749.5200

          OUT:                                     OUT:
          ----                                     ----
             STORAGE =       15001.0791               STORAGE =       2.8644E-04
       CONSTANT HEAD =           0.0000         CONSTANT HEAD =           0.0000
               WELLS =           0.0000                 WELLS =           0.0000
     HEAD DEP BOUNDS =       75327.2734       HEAD DEP BOUNDS =         749.5872

           TOTAL OUT =       90328.3516             TOTAL OUT =         749.5875

            IN - OUT =          -4.4844              IN - OUT =      -6.7566E-02

 PERCENT DISCREPANCY =          -0.00     PERCENT DISCREPANCY =          -0.01






         TIME SUMMARY AT END OF TIME STEP    5 IN STRESS PERIOD    3
                    SECONDS     MINUTES      HOURS       DAYS        YEARS
                    -----------------------------------------------------------
   TIME STEP LENGTH  86400.      1440.0      24.000      1.0000     2.73785E-03
 STRESS PERIOD TIME 4.32000E+05  7200.0      120.00      5.0000     1.36893E-02
         TOTAL TIME 9.15840E+06 1.52640E+05  2544.0      106.00     0.29021    
1
 
 SOLVING FOR HEAD 

 OUTPUT CONTROL FOR STRESS PERIOD    3   TIME STEP    6
    SAVE HEAD FOR ALL LAYERS
    SAVE DRAWDOWN FOR ALL LAYERS
    SAVE BUDGET
    PRINT HEAD FOR ALL LAYERS
    PRINT BUDGET
 UBDSV1 SAVING "         STORAGE" ON UNIT  53 AT TIME STEP  6, STRESS PERIOD   3
 UBDSV2 SAVING "   CONSTANT HEAD" ON UNIT  53 AT TIME STEP  6, STRESS PERIOD   3
 UBDSV1 SAVING "FLOW RIGHT FACE " ON UNIT  53 AT TIME STEP  6, STRESS PERIOD   3
 UBDSV1 SAVING "FLOW FRONT FACE " ON UNIT  53 AT TIME STEP  6, STRESS PERIOD   3
 UBDSV1 SAVING "FLOW LOWER FACE " ON UNIT  53 AT TIME STEP  6, STRESS PERIOD   3
1
              HEAD IN LAYER   1 AT END OF TIME STEP   6 IN STRESS PERIOD    3
  ---------------------------------------------------------------------------

            1           2           3           4           5
 ............................................................
   1    9.998       7.499       5.000       2.502      2.9983E-03
   2    9.998       7.499       5.000       2.502      2.9983E-03
   3    9.998       7.499       5.000       2.502      2.9983E-03
   4    9.998       7.499       5.000       2.502      2.9983E-03
   5    9.998       7.499       5.000       2.502      2.9983E-03
1
              HEAD IN LAYER   2 AT END OF TIME STEP   6 IN STRESS PERIOD    3
  ---------------------------------------------------------------------------

            1           2           3           4           5
 ............................................................
   1    9.998       7.499       5.000       2.502      2.9983E-03
   2    9.998       7.499       5.000       2.502      2.9983E-03
   3    9.998       7.499       5.000       2.502      2.9983E-03
   4    9.998       7.499       5.000       2.502      2.9983E-03
   5    9.998       7.499       5.000       2.502      2.9983E-03
1
              HEAD IN LAYER   3 AT END OF TIME STEP   6 IN STRESS PERIOD    3
  ---------------------------------------------------------------------------

            1           2           3           4           5
 ............................................................
   1    9.998       7.499       5.000       2.502      2.9983E-03
   2    9.998       7.499       5.000       2.502      2.9983E-03
   3    9.998       7.499       5.000       2.502      2.9983E-03
   4    9.998       7.499       5.000       2.502      2.9983E-03
   5    9.998       7.499       5.000       2.502      2.9983E-03
1
              HEAD IN LAYER   4 AT END OF TIME STEP   6 IN STRESS PERIOD    3
  ---------------------------------------------------------------------------

            1           2           3           4           5
 ............................................................
   1    9.998       7.499       5.000       2.502      2.9983E-03
   2    9.998       7.499       5.000       2.502      2.9983E-03
   3    9.998       7.499       5.000       2.502      2.9983E-03
   4    9.998       7.499       5.000       2.502      2.9983E-03
   5    9.998       7.499       5.000       2.502      2.9983E-03
1
              HEAD IN LAYER   5 AT END OF TIME STEP   6 IN STRESS PERIOD    3
  ---------------------------------------------------------------------------

            1           2           3           4           5
 ............................................................
   1    9.998       7.499       5.000       2.502      2.9983E-03
   2    9.998       7.499       5.000       2.502      2.9983E-03
   3    9.998       7.499       5.000       2.502      2.9983E-03
   4    9.998       7.499       5.000       2.502      2.9983E-03
   5    9.998       7.499       5.000       2.502      2.9983E-03

 HEAD WILL BE SAVED ON UNIT   51 AT END OF TIME STEP    6, STRESS PERIOD    3

 DRAWDOWN WILL BE SAVED ON UNIT   52 AT END OF TIME STEP    6, STRESS PERIOD    3
1
  VOLUMETRIC BUDGET FOR ENTIRE MODEL AT END OF TIME STEP    6, STRESS PERIOD   3
  ------------------------------------------------------------------------------

     CUMULATIVE VOLUMES      L**3       RATES FOR THIS TIME STEP      L**3/T
     ------------------                 ------------------------

           IN:                                      IN:
           ---                                      ---
             STORAGE =           0.0000               STORAGE =           0.0000
       CONSTANT HEAD =           0.0000         CONSTANT HEAD =           0.0000
               WELLS =           0.0000                 WELLS =           0.0000
     HEAD DEP BOUNDS =       91073.3906       HEAD DEP BOUNDS =         749.5200

            TOTAL IN =       91073.3906              TOTAL IN =         749.5200

          OUT:                                     OUT:
          ----                                     ----
             STORAGE =       15001.0791               STORAGE =       2.7940E-07
       CONSTANT HEAD =           0.0000         CONSTANT HEAD =           0.0000
               WELLS =           0.0000                 WELLS =           0.0000
     HEAD DEP BOUNDS =       76076.8594       HEAD DEP BOUNDS =         749.5873

           TOTAL OUT =       91077.9375             TOTAL OUT =         749.5873

            IN - OUT =          -4.5469              IN - OUT =      -6.7322E-02

 PERCENT DISCREPANCY =          -0.00     PERCENT DISCREPANCY =          -0.01






         TIME SUMMARY AT END OF TIME STEP    6 IN STRESS PERIOD    3
                    SECONDS     MINUTES      HOURS       DAYS        YEARS
                    -----------------------------------------------------------
   TIME STEP LENGTH  86400.      1440.0      24.000      1.0000     2.73785E-03
 STRESS PERIOD TIME 5.18400E+05  8640.0      144.00      6.0000     1.64271E-02
         TOTAL TIME 9.24480E+06 1.54080E+05  2568.0      107.00     0.29295    
1
 
 SOLVING FOR HEAD 

 OUTPUT CONTROL FOR STRESS PERIOD    3   TIME STEP    7
    SAVE HEAD FOR ALL LAYERS
    SAVE DRAWDOWN FOR ALL LAYERS
    SAVE BUDGET
    PRINT HEAD FOR ALL LAYERS
    PRINT BUDGET
 UBDSV1 SAVING "         STORAGE" ON UNIT  53 AT TIME STEP  7, STRESS PERIOD   3
 UBDSV2 SAVING "   CONSTANT HEAD" ON UNIT  53 AT TIME STEP  7, STRESS PERIOD   3
 UBDSV1 SAVING "FLOW RIGHT FACE " ON UNIT  53 AT TIME STEP  7, STRESS PERIOD   3
 UBDSV1 SAVING "FLOW FRONT FACE " ON UNIT  53 AT TIME STEP  7, STRESS PERIOD   3
 UBDSV1 SAVING "FLOW LOWER FACE " ON UNIT  53 AT TIME STEP  7, STRESS PERIOD   3
1
              HEAD IN LAYER   1 AT END OF TIME STEP   7 IN STRESS PERIOD    3
  ---------------------------------------------------------------------------

            1           2           3           4           5
 ............................................................
   1    9.998       7.499       5.000       2.502      2.9983E-03
   2    9.998       7.499       5.000       2.502      2.9983E-03
   3    9.998       7.499       5.000       2.502      2.9983E-03
   4    9.998       7.499       5.000       2.502      2.9983E-03
   5    9.998       7.499       5.000       2.502      2.9983E-03
1
              HEAD IN LAYER   2 AT END OF TIME STEP   7 IN STRESS PERIOD    3
  ---------------------------------------------------------------------------

            1           2           3           4           5
 ............................................................
   1    9.998       7.499       5.000       2.502      2.9983E-03
   2    9.998       7.499       5.000       2.502      2.9983E-03
   3    9.998       7.499       5.000       2.502      2.9983E-03
   4    9.998       7.499       5.000       2.502      2.9983E-03
   5    9.998       7.499       5.000       2.502      2.9983E-03
1
              HEAD IN LAYER   3 AT END OF TIME STEP   7 IN STRESS PERIOD    3
  ---------------------------------------------------------------------------

            1           2           3           4           5
 ............................................................
   1    9.998       7.499       5.000       2.502      2.9983E-03
   2    9.998       7.499       5.000       2.502      2.9983E-03
   3    9.998       7.499       5.000       2.502      2.9983E-03
   4    9.998       7.499       5.000       2.502      2.9983E-03
   5    9.998       7.499       5.000       2.502      2.9983E-03
1
              HEAD IN LAYER   4 AT END OF TIME STEP   7 IN STRESS PERIOD    3
  ---------------------------------------------------------------------------

            1           2           3           4           5
 ............................................................
   1    9.998       7.499       5.000       2.502      2.9983E-03
   2    9.998       7.499       5.000       2.502      2.9983E-03
   3    9.998       7.499       5.000       2.502      2.9983E-03
   4    9.998       7.499       5.000       2.502      2.9983E-03
   5    9.998       7.499       5.000       2.502      2.9983E-03
1
              HEAD IN LAYER   5 AT END OF TIME STEP   7 IN STRESS PERIOD    3
  ---------------------------------------------------------------------------

            1           2           3           4           5
 ............................................................
   1    9.998       7.499       5.000       2.502      2.9983E-03
   2    9.998       7.499       5.000       2.502      2.9983E-03
   3    9.998       7.499       5.000       2.502      2.9983E-03
   4    9.998       7.499       5.000       2.502      2.9983E-03
   5    9.998       7.499       5.000       2.502      2.9983E-03

 HEAD WILL BE SAVED ON UNIT   51 AT END OF TIME STEP    7, STRESS PERIOD    3

 DRAWDOWN WILL BE SAVED ON UNIT   52 AT END OF TIME STEP    7, STRESS PERIOD    3
1
  VOLUMETRIC BUDGET FOR ENTIRE MODEL AT END OF TIME STEP    7, STRESS PERIOD   3
  ------------------------------------------------------------------------------

     CUMULATIVE VOLUMES      L**3       RATES FOR THIS TIME STEP      L**3/T
     ------------------                 ------------------------

           IN:                                      IN:
           ---                                      ---
             STORAGE =           0.0000               STORAGE =           0.0000
       CONSTANT HEAD =           0.0000         CONSTANT HEAD =           0.0000
               WELLS =           0.0000                 WELLS =           0.0000
     HEAD DEP BOUNDS =       91822.9141       HEAD DEP BOUNDS =         749.5200

            TOTAL IN =       91822.9141              TOTAL IN =         749.5200

          OUT:                                     OUT:
          ----                                     ----
             STORAGE =       15001.0791               STORAGE =       1.6764E-07
       CONSTANT HEAD =           0.0000         CONSTANT HEAD =           0.0000
               WELLS =           0.0000                 WELLS =           0.0000
     HEAD DEP BOUNDS =       76826.4453       HEAD DEP BOUNDS =         749.5873

           TOTAL OUT =       91827.5234             TOTAL OUT =         749.5873

            IN - OUT =          -4.6094              IN - OUT =      -6.7383E-02

 PERCENT DISCREPANCY =          -0.01     PERCENT DISCREPANCY =          -0.01






         TIME SUMMARY AT END OF TIME STEP    7 IN STRESS PERIOD    3
                    SECONDS     MINUTES      HOURS       DAYS        YEARS
                    -----------------------------------------------------------
   TIME STEP LENGTH  86400.      1440.0      24.000      1.0000     2.73785E-03
 STRESS PERIOD TIME 6.04800E+05  10080.      168.00      7.0000     1.91650E-02
         TOTAL TIME 9.33120E+06 1.55520E+05  2592.0      108.00     0.29569    
1
 
 SOLVING FOR HEAD 

 OUTPUT CONTROL FOR STRESS PERIOD    3   TIME STEP    8
    SAVE HEAD FOR ALL LAYERS
    SAVE DRAWDOWN FOR ALL LAYERS
    SAVE BUDGET
    PRINT HEAD FOR ALL LAYERS
    PRINT BUDGET
 UBDSV1 SAVING "         STORAGE" ON UNIT  53 AT TIME STEP  8, STRESS PERIOD   3
 UBDSV2 SAVING "   CONSTANT HEAD" ON UNIT  53 AT TIME STEP  8, STRESS PERIOD   3
 UBDSV1 SAVING "FLOW RIGHT FACE " ON UNIT  53 AT TIME STEP  8, STRESS PERIOD   3
 UBDSV1 SAVING "FLOW FRONT FACE " ON UNIT  53 AT TIME STEP  8, STRESS PERIOD   3
 UBDSV1 SAVING "FLOW LOWER FACE " ON UNIT  53 AT TIME STEP  8, STRESS PERIOD   3
1
              HEAD IN LAYER   1 AT END OF TIME STEP   8 IN STRESS PERIOD    3
  ---------------------------------------------------------------------------

            1           2           3           4           5
 ............................................................
   1    9.998       7.499       5.000       2.502      2.9983E-03
   2    9.998       7.499       5.000       2.502      2.9983E-03
   3    9.998       7.499       5.000       2.502      2.9983E-03
   4    9.998       7.499       5.000       2.502      2.9983E-03
   5    9.998       7.499       5.000       2.502      2.9983E-03
1
              HEAD IN LAYER   2 AT END OF TIME STEP   8 IN STRESS PERIOD    3
  ---------------------------------------------------------------------------

            1           2           3           4           5
 ............................................................
   1    9.998       7.499       5.000       2.502      2.9983E-03
   2    9.998       7.499       5.000       2.502      2.9983E-03
   3    9.998       7.499       5.000       2.502      2.9983E-03
   4    9.998       7.499       5.000       2.502      2.9983E-03
   5    9.998       7.499       5.000       2.502      2.9983E-03
1
              HEAD IN LAYER   3 AT END OF TIME STEP   8 IN STRESS PERIOD    3
  ---------------------------------------------------------------------------

            1           2           3           4           5
 ............................................................
   1    9.998       7.499       5.000       2.502      2.9983E-03
   2    9.998       7.499       5.000       2.502      2.9983E-03
   3    9.998       7.499       5.000       2.502      2.9983E-03
   4    9.998       7.499       5.000       2.502      2.9983E-03
   5    9.998       7.499       5.000       2.502      2.9983E-03
1
              HEAD IN LAYER   4 AT END OF TIME STEP   8 IN STRESS PERIOD    3
  ---------------------------------------------------------------------------

            1           2           3           4           5
 ............................................................
   1    9.998       7.499       5.000       2.502      2.9983E-03
   2    9.998       7.499       5.000       2.502      2.9983E-03
   3    9.998       7.499       5.000       2.502      2.9983E-03
   4    9.998       7.499       5.000       2.502      2.9983E-03
   5    9.998       7.499       5.000       2.502      2.9983E-03
1
              HEAD IN LAYER   5 AT END OF TIME STEP   8 IN STRESS PERIOD    3
  ---------------------------------------------------------------------------

            1           2           3           4           5
 ............................................................
   1    9.998       7.499       5.000       2.502      2.9983E-03
   2    9.998       7.499       5.000       2.502      2.9983E-03
   3    9.998       7.499       5.000       2.502      2.9983E-03
   4    9.998       7.499       5.000       2.502      2.9983E-03
   5    9.998       7.499       5.000       2.502      2.9983E-03

 HEAD WILL BE SAVED ON UNIT   51 AT END OF TIME STEP    8, STRESS PERIOD    3

 DRAWDOWN WILL BE SAVED ON UNIT   52 AT END OF TIME STEP    8, STRESS PERIOD    3
1
  VOLUMETRIC BUDGET FOR ENTIRE MODEL AT END OF TIME STEP    8, STRESS PERIOD   3
  ------------------------------------------------------------------------------

     CUMULATIVE VOLUMES      L**3       RATES FOR THIS TIME STEP      L**3/T
     ------------------                 ------------------------

           IN:                                      IN:
           ---                                      ---
             STORAGE =           0.0000               STORAGE =           0.0000
       CONSTANT HEAD =           0.0000         CONSTANT HEAD =           0.0000
               WELLS =           0.0000                 WELLS =           0.0000
     HEAD DEP BOUNDS =       92572.4375       HEAD DEP BOUNDS =         749.5200

            TOTAL IN =       92572.4375              TOTAL IN =         749.5200

          OUT:                                     OUT:
          ----                                     ----
             STORAGE =       15001.0791               STORAGE =           0.0000
       CONSTANT HEAD =           0.0000         CONSTANT HEAD =           0.0000
               WELLS =           0.0000                 WELLS =           0.0000
     HEAD DEP BOUNDS =       77576.0312       HEAD DEP BOUNDS =         749.5873

           TOTAL OUT =       92577.1094             TOTAL OUT =         749.5873

            IN - OUT =          -4.6719              IN - OUT =      -6.7383E-02

 PERCENT DISCREPANCY =          -0.01     PERCENT DISCREPANCY =          -0.01






         TIME SUMMARY AT END OF TIME STEP    8 IN STRESS PERIOD    3
                    SECONDS     MINUTES      HOURS       DAYS        YEARS
                    -----------------------------------------------------------
   TIME STEP LENGTH  86400.      1440.0      24.000      1.0000     2.73785E-03
 STRESS PERIOD TIME 6.91200E+05  11520.      192.00      8.0000     2.19028E-02
         TOTAL TIME 9.41760E+06 1.56960E+05  2616.0      109.00     0.29843    
1
 
 SOLVING FOR HEAD 

 OUTPUT CONTROL FOR STRESS PERIOD    3   TIME STEP    9
    SAVE HEAD FOR ALL LAYERS
    SAVE DRAWDOWN FOR ALL LAYERS
    SAVE BUDGET
    PRINT HEAD FOR ALL LAYERS
    PRINT BUDGET
 UBDSV1 SAVING "         STORAGE" ON UNIT  53 AT TIME STEP  9, STRESS PERIOD   3
 UBDSV2 SAVING "   CONSTANT HEAD" ON UNIT  53 AT TIME STEP  9, STRESS PERIOD   3
 UBDSV1 SAVING "FLOW RIGHT FACE " ON UNIT  53 AT TIME STEP  9, STRESS PERIOD   3
 UBDSV1 SAVING "FLOW FRONT FACE " ON UNIT  53 AT TIME STEP  9, STRESS PERIOD   3
 UBDSV1 SAVING "FLOW LOWER FACE " ON UNIT  53 AT TIME STEP  9, STRESS PERIOD   3
1
              HEAD IN LAYER   1 AT END OF TIME STEP   9 IN STRESS PERIOD    3
  ---------------------------------------------------------------------------

            1           2           3           4           5
 ............................................................
   1    9.998       7.499       5.000       2.502      2.9983E-03
   2    9.998       7.499       5.000       2.502      2.9983E-03
   3    9.998       7.499       5.000       2.502      2.9983E-03
   4    9.998       7.499       5.000       2.502      2.9983E-03
   5    9.998       7.499       5.000       2.502      2.9983E-03
1
              HEAD IN LAYER   2 AT END OF TIME STEP   9 IN STRESS PERIOD    3
  ---------------------------------------------------------------------------

            1           2           3           4           5
 ............................................................
   1    9.998       7.499       5.000       2.502      2.9983E-03
   2    9.998       7.499       5.000       2.502      2.9983E-03
   3    9.998       7.499       5.000       2.502      2.9983E-03
   4    9.998       7.499       5.000       2.502      2.9983E-03
   5    9.998       7.499       5.000       2.502      2.9983E-03
1
              HEAD IN LAYER   3 AT END OF TIME STEP   9 IN STRESS PERIOD    3
  ---------------------------------------------------------------------------

            1           2           3           4           5
 ............................................................
   1    9.998       7.499       5.000       2.502      2.9983E-03
   2    9.998       7.499       5.000       2.502      2.9983E-03
   3    9.998       7.499       5.000       2.502      2.9983E-03
   4    9.998       7.499       5.000       2.502      2.9983E-03
   5    9.998       7.499       5.000       2.502      2.9983E-03
1
              HEAD IN LAYER   4 AT END OF TIME STEP   9 IN STRESS PERIOD    3
  ---------------------------------------------------------------------------

            1           2           3           4           5
 ............................................................
   1    9.998       7.499       5.000       2.502      2.9983E-03
   2    9.998       7.499       5.000       2.502      2.9983E-03
   3    9.998       7.499       5.000       2.502      2.9983E-03
   4    9.998       7.499       5.000       2.502      2.9983E-03
   5    9.998       7.499       5.000       2.502      2.9983E-03
1
              HEAD IN LAYER   5 AT END OF TIME STEP   9 IN STRESS PERIOD    3
  ---------------------------------------------------------------------------

            1           2           3           4           5
 ............................................................
   1    9.998       7.499       5.000       2.502      2.9983E-03
   2    9.998       7.499       5.000       2.502      2.9983E-03
   3    9.998       7.499       5.000       2.502      2.9983E-03
   4    9.998       7.499       5.000       2.502      2.9983E-03
   5    9.998       7.499       5.000       2.502      2.9983E-03

 HEAD WILL BE SAVED ON UNIT   51 AT END OF TIME STEP    9, STRESS PERIOD    3

 DRAWDOWN WILL BE SAVED ON UNIT   52 AT END OF TIME STEP    9, STRESS PERIOD    3
1
  VOLUMETRIC BUDGET FOR ENTIRE MODEL AT END OF TIME STEP    9, STRESS PERIOD   3
  ------------------------------------------------------------------------------

     CUMULATIVE VOLUMES      L**3       RATES FOR THIS TIME STEP      L**3/T
     ------------------                 ------------------------

           IN:                                      IN:
           ---                                      ---
             STORAGE =           0.0000               STORAGE =           0.0000
       CONSTANT HEAD =           0.0000         CONSTANT HEAD =           0.0000
               WELLS =           0.0000                 WELLS =           0.0000
     HEAD DEP BOUNDS =       93321.9609       HEAD DEP BOUNDS =         749.5200

            TOTAL IN =       93321.9609              TOTAL IN =         749.5200

          OUT:                                     OUT:
          ----                                     ----
             STORAGE =       15001.0791               STORAGE =           0.0000
       CONSTANT HEAD =           0.0000         CONSTANT HEAD =           0.0000
               WELLS =           0.0000                 WELLS =           0.0000
     HEAD DEP BOUNDS =       78325.6172       HEAD DEP BOUNDS =         749.5873

           TOTAL OUT =       93326.6953             TOTAL OUT =         749.5873

            IN - OUT =          -4.7344              IN - OUT =      -6.7383E-02

 PERCENT DISCREPANCY =          -0.01     PERCENT DISCREPANCY =          -0.01






         TIME SUMMARY AT END OF TIME STEP    9 IN STRESS PERIOD    3
                    SECONDS     MINUTES      HOURS       DAYS        YEARS
                    -----------------------------------------------------------
   TIME STEP LENGTH  86400.      1440.0      24.000      1.0000     2.73785E-03
 STRESS PERIOD TIME 7.77600E+05  12960.      216.00      9.0000     2.46407E-02
         TOTAL TIME 9.50400E+06 1.58400E+05  2640.0      110.00     0.30116    
1
 
 SOLVING FOR HEAD 

 OUTPUT CONTROL FOR STRESS PERIOD    3   TIME STEP   10
    SAVE HEAD FOR ALL LAYERS
    SAVE DRAWDOWN FOR ALL LAYERS
    SAVE BUDGET
    PRINT HEAD FOR ALL LAYERS
    PRINT BUDGET
 UBDSV1 SAVING "         STORAGE" ON UNIT  53 AT TIME STEP 10, STRESS PERIOD   3
 UBDSV2 SAVING "   CONSTANT HEAD" ON UNIT  53 AT TIME STEP 10, STRESS PERIOD   3
 UBDSV1 SAVING "FLOW RIGHT FACE " ON UNIT  53 AT TIME STEP 10, STRESS PERIOD   3
 UBDSV1 SAVING "FLOW FRONT FACE " ON UNIT  53 AT TIME STEP 10, STRESS PERIOD   3
 UBDSV1 SAVING "FLOW LOWER FACE " ON UNIT  53 AT TIME STEP 10, STRESS PERIOD   3
1
              HEAD IN LAYER   1 AT END OF TIME STEP  10 IN STRESS PERIOD    3
  ---------------------------------------------------------------------------

            1           2           3           4           5
 ............................................................
   1    9.998       7.499       5.000       2.502      2.9983E-03
   2    9.998       7.499       5.000       2.502      2.9983E-03
   3    9.998       7.499       5.000       2.502      2.9983E-03
   4    9.998       7.499       5.000       2.502      2.9983E-03
   5    9.998       7.499       5.000       2.502      2.9983E-03
1
              HEAD IN LAYER   2 AT END OF TIME STEP  10 IN STRESS PERIOD    3
  ---------------------------------------------------------------------------

            1           2           3           4           5
 ............................................................
   1    9.998       7.499       5.000       2.502      2.9983E-03
   2    9.998       7.499       5.000       2.502      2.9983E-03
   3    9.998       7.499       5.000       2.502      2.9983E-03
   4    9.998       7.499       5.000       2.502      2.9983E-03
   5    9.998       7.499       5.000       2.502      2.9983E-03
1
              HEAD IN LAYER   3 AT END OF TIME STEP  10 IN STRESS PERIOD    3
  ---------------------------------------------------------------------------

            1           2           3           4           5
 ............................................................
   1    9.998       7.499       5.000       2.502      2.9983E-03
   2    9.998       7.499       5.000       2.502      2.9983E-03
   3    9.998       7.499       5.000       2.502      2.9983E-03
   4    9.998       7.499       5.000       2.502      2.9983E-03
   5    9.998       7.499       5.000       2.502      2.9983E-03
1
              HEAD IN LAYER   4 AT END OF TIME STEP  10 IN STRESS PERIOD    3
  ---------------------------------------------------------------------------

            1           2           3           4           5
 ............................................................
   1    9.998       7.499       5.000       2.502      2.9983E-03
   2    9.998       7.499       5.000       2.502      2.9983E-03
   3    9.998       7.499       5.000       2.502      2.9983E-03
   4    9.998       7.499       5.000       2.502      2.9983E-03
   5    9.998       7.499       5.000       2.502      2.9983E-03
1
              HEAD IN LAYER   5 AT END OF TIME STEP  10 IN STRESS PERIOD    3
  ---------------------------------------------------------------------------

            1           2           3           4           5
 ............................................................
   1    9.998       7.499       5.000       2.502      2.9983E-03
   2    9.998       7.499       5.000       2.502      2.9983E-03
   3    9.998       7.499       5.000       2.502      2.9983E-03
   4    9.998       7.499       5.000       2.502      2.9983E-03
   5    9.998       7.499       5.000       2.502      2.9983E-03

 HEAD WILL BE SAVED ON UNIT   51 AT END OF TIME STEP   10, STRESS PERIOD    3

 DRAWDOWN WILL BE SAVED ON UNIT   52 AT END OF TIME STEP   10, STRESS PERIOD    3
1
  VOLUMETRIC BUDGET FOR ENTIRE MODEL AT END OF TIME STEP   10, STRESS PERIOD   3
  ------------------------------------------------------------------------------

     CUMULATIVE VOLUMES      L**3       RATES FOR THIS TIME STEP      L**3/T
     ------------------                 ------------------------

           IN:                                      IN:
           ---                                      ---
             STORAGE =           0.0000               STORAGE =           0.0000
       CONSTANT HEAD =           0.0000         CONSTANT HEAD =           0.0000
               WELLS =           0.0000                 WELLS =           0.0000
     HEAD DEP BOUNDS =       94071.4844       HEAD DEP BOUNDS =         749.5200

            TOTAL IN =       94071.4844              TOTAL IN =         749.5200

          OUT:                                     OUT:
          ----                                     ----
             STORAGE =       15001.0791               STORAGE =           0.0000
       CONSTANT HEAD =           0.0000         CONSTANT HEAD =           0.0000
               WELLS =           0.0000                 WELLS =           0.0000
     HEAD DEP BOUNDS =       79075.2031       HEAD DEP BOUNDS =         749.5873

           TOTAL OUT =       94076.2812             TOTAL OUT =         749.5873

            IN - OUT =          -4.7969              IN - OUT =      -6.7383E-02

 PERCENT DISCREPANCY =          -0.01     PERCENT DISCREPANCY =          -0.01






         TIME SUMMARY AT END OF TIME STEP   10 IN STRESS PERIOD    3
                    SECONDS     MINUTES      HOURS       DAYS        YEARS
                    -----------------------------------------------------------
   TIME STEP LENGTH  86400.      1440.0      24.000      1.0000     2.73785E-03
 STRESS PERIOD TIME 8.64000E+05  14400.      240.00      10.000     2.73785E-02
         TOTAL TIME 9.59040E+06 1.59840E+05  2664.0      111.00     0.30390    
1
 
 SOLVING FOR HEAD 

 OUTPUT CONTROL FOR STRESS PERIOD    3   TIME STEP   11
    SAVE HEAD FOR ALL LAYERS
    SAVE DRAWDOWN FOR ALL LAYERS
    SAVE BUDGET
    PRINT HEAD FOR ALL LAYERS
    PRINT BUDGET
 UBDSV1 SAVING "         STORAGE" ON UNIT  53 AT TIME STEP 11, STRESS PERIOD   3
 UBDSV2 SAVING "   CONSTANT HEAD" ON UNIT  53 AT TIME STEP 11, STRESS PERIOD   3
 UBDSV1 SAVING "FLOW RIGHT FACE " ON UNIT  53 AT TIME STEP 11, STRESS PERIOD   3
 UBDSV1 SAVING "FLOW FRONT FACE " ON UNIT  53 AT TIME STEP 11, STRESS PERIOD   3
 UBDSV1 SAVING "FLOW LOWER FACE " ON UNIT  53 AT TIME STEP 11, STRESS PERIOD   3
1
              HEAD IN LAYER   1 AT END OF TIME STEP  11 IN STRESS PERIOD    3
  ---------------------------------------------------------------------------

            1           2           3           4           5
 ............................................................
   1    9.998       7.499       5.000       2.502      2.9983E-03
   2    9.998       7.499       5.000       2.502      2.9983E-03
   3    9.998       7.499       5.000       2.502      2.9983E-03
   4    9.998       7.499       5.000       2.502      2.9983E-03
   5    9.998       7.499       5.000       2.502      2.9983E-03
1
              HEAD IN LAYER   2 AT END OF TIME STEP  11 IN STRESS PERIOD    3
  ---------------------------------------------------------------------------

            1           2           3           4           5
 ............................................................
   1    9.998       7.499       5.000       2.502      2.9983E-03
   2    9.998       7.499       5.000       2.502      2.9983E-03
   3    9.998       7.499       5.000       2.502      2.9983E-03
   4    9.998       7.499       5.000       2.502      2.9983E-03
   5    9.998       7.499       5.000       2.502      2.9983E-03
1
              HEAD IN LAYER   3 AT END OF TIME STEP  11 IN STRESS PERIOD    3
  ---------------------------------------------------------------------------

            1           2           3           4           5
 ............................................................
   1    9.998       7.499       5.000       2.502      2.9983E-03
   2    9.998       7.499       5.000       2.502      2.9983E-03
   3    9.998       7.499       5.000       2.502      2.9983E-03
   4    9.998       7.499       5.000       2.502      2.9983E-03
   5    9.998       7.499       5.000       2.502      2.9983E-03
1
              HEAD IN LAYER   4 AT END OF TIME STEP  11 IN STRESS PERIOD    3
  ---------------------------------------------------------------------------

            1           2           3           4           5
 ............................................................
   1    9.998       7.499       5.000       2.502      2.9983E-03
   2    9.998       7.499       5.000       2.502      2.9983E-03
   3    9.998       7.499       5.000       2.502      2.9983E-03
   4    9.998       7.499       5.000       2.502      2.9983E-03
   5    9.998       7.499       5.000       2.502      2.9983E-03
1
              HEAD IN LAYER   5 AT END OF TIME STEP  11 IN STRESS PERIOD    3
  ---------------------------------------------------------------------------

            1           2           3           4           5
 ............................................................
   1    9.998       7.499       5.000       2.502      2.9983E-03
   2    9.998       7.499       5.000       2.502      2.9983E-03
   3    9.998       7.499       5.000       2.502      2.9983E-03
   4    9.998       7.499       5.000       2.502      2.9983E-03
   5    9.998       7.499       5.000       2.502      2.9983E-03

 HEAD WILL BE SAVED ON UNIT   51 AT END OF TIME STEP   11, STRESS PERIOD    3

 DRAWDOWN WILL BE SAVED ON UNIT   52 AT END OF TIME STEP   11, STRESS PERIOD    3
1
  VOLUMETRIC BUDGET FOR ENTIRE MODEL AT END OF TIME STEP   11, STRESS PERIOD   3
  ------------------------------------------------------------------------------

     CUMULATIVE VOLUMES      L**3       RATES FOR THIS TIME STEP      L**3/T
     ------------------                 ------------------------

           IN:                                      IN:
           ---                                      ---
             STORAGE =           0.0000               STORAGE =           0.0000
       CONSTANT HEAD =           0.0000         CONSTANT HEAD =           0.0000
               WELLS =           0.0000                 WELLS =           0.0000
     HEAD DEP BOUNDS =       94821.0078       HEAD DEP BOUNDS =         749.5200

            TOTAL IN =       94821.0078              TOTAL IN =         749.5200

          OUT:                                     OUT:
          ----                                     ----
             STORAGE =       15001.0791               STORAGE =           0.0000
       CONSTANT HEAD =           0.0000         CONSTANT HEAD =           0.0000
               WELLS =           0.0000                 WELLS =           0.0000
     HEAD DEP BOUNDS =       79824.7891       HEAD DEP BOUNDS =         749.5873

           TOTAL OUT =       94825.8672             TOTAL OUT =         749.5873

            IN - OUT =          -4.8594              IN - OUT =      -6.7383E-02

 PERCENT DISCREPANCY =          -0.01     PERCENT DISCREPANCY =          -0.01






         TIME SUMMARY AT END OF TIME STEP   11 IN STRESS PERIOD    3
                    SECONDS     MINUTES      HOURS       DAYS        YEARS
                    -----------------------------------------------------------
   TIME STEP LENGTH  86400.      1440.0      24.000      1.0000     2.73785E-03
 STRESS PERIOD TIME 9.50400E+05  15840.      264.00      11.000     3.01164E-02
         TOTAL TIME 9.67680E+06 1.61280E+05  2688.0      112.00     0.30664    
1
 
 SOLVING FOR HEAD 

 OUTPUT CONTROL FOR STRESS PERIOD    3   TIME STEP   12
    SAVE HEAD FOR ALL LAYERS
    SAVE DRAWDOWN FOR ALL LAYERS
    SAVE BUDGET
    PRINT HEAD FOR ALL LAYERS
    PRINT BUDGET
 UBDSV1 SAVING "         STORAGE" ON UNIT  53 AT TIME STEP 12, STRESS PERIOD   3
 UBDSV2 SAVING "   CONSTANT HEAD" ON UNIT  53 AT TIME STEP 12, STRESS PERIOD   3
 UBDSV1 SAVING "FLOW RIGHT FACE " ON UNIT  53 AT TIME STEP 12, STRESS PERIOD   3
 UBDSV1 SAVING "FLOW FRONT FACE " ON UNIT  53 AT TIME STEP 12, STRESS PERIOD   3
 UBDSV1 SAVING "FLOW LOWER FACE " ON UNIT  53 AT TIME STEP 12, STRESS PERIOD   3
1
              HEAD IN LAYER   1 AT END OF TIME STEP  12 IN STRESS PERIOD    3
  ---------------------------------------------------------------------------

            1           2           3           4           5
 ............................................................
   1    9.998       7.499       5.000       2.502      2.9983E-03
   2    9.998       7.499       5.000       2.502      2.9983E-03
   3    9.998       7.499       5.000       2.502      2.9983E-03
   4    9.998       7.499       5.000       2.502      2.9983E-03
   5    9.998       7.499       5.000       2.502      2.9983E-03
1
              HEAD IN LAYER   2 AT END OF TIME STEP  12 IN STRESS PERIOD    3
  ---------------------------------------------------------------------------

            1           2           3           4           5
 ............................................................
   1    9.998       7.499       5.000       2.502      2.9983E-03
   2    9.998       7.499       5.000       2.502      2.9983E-03
   3    9.998       7.499       5.000       2.502      2.9983E-03
   4    9.998       7.499       5.000       2.502      2.9983E-03
   5    9.998       7.499       5.000       2.502      2.9983E-03
1
              HEAD IN LAYER   3 AT END OF TIME STEP  12 IN STRESS PERIOD    3
  ---------------------------------------------------------------------------

            1           2           3           4           5
 ............................................................
   1    9.998       7.499       5.000       2.502      2.9983E-03
   2    9.998       7.499       5.000       2.502      2.9983E-03
   3    9.998       7.499       5.000       2.502      2.9983E-03
   4    9.998       7.499       5.000       2.502      2.9983E-03
   5    9.998       7.499       5.000       2.502      2.9983E-03
1
              HEAD IN LAYER   4 AT END OF TIME STEP  12 IN STRESS PERIOD    3
  ---------------------------------------------------------------------------

            1           2           3           4           5
 ............................................................
   1    9.998       7.499       5.000       2.502      2.9983E-03
   2    9.998       7.499       5.000       2.502      2.9983E-03
   3    9.998       7.499       5.000       2.502      2.9983E-03
   4    9.998       7.499       5.000       2.502      2.9983E-03
   5    9.998       7.499       5.000       2.502      2.9983E-03
1
              HEAD IN LAYER   5 AT END OF TIME STEP  12 IN STRESS PERIOD    3
  ---------------------------------------------------------------------------

            1           2           3           4           5
 ............................................................
   1    9.998       7.499       5.000       2.502      2.9983E-03
   2    9.998       7.499       5.000       2.502      2.9983E-03
   3    9.998       7.499       5.000       2.502      2.9983E-03
   4    9.998       7.499       5.000       2.502      2.9983E-03
   5    9.998       7.499       5.000       2.502      2.9983E-03

 HEAD WILL BE SAVED ON UNIT   51 AT END OF TIME STEP   12, STRESS PERIOD    3

 DRAWDOWN WILL BE SAVED ON UNIT   52 AT END OF TIME STEP   12, STRESS PERIOD    3
1
  VOLUMETRIC BUDGET FOR ENTIRE MODEL AT END OF TIME STEP   12, STRESS PERIOD   3
  ------------------------------------------------------------------------------

     CUMULATIVE VOLUMES      L**3       RATES FOR THIS TIME STEP      L**3/T
     ------------------                 ------------------------

           IN:                                      IN:
           ---                                      ---
             STORAGE =           0.0000               STORAGE =           0.0000
       CONSTANT HEAD =           0.0000         CONSTANT HEAD =           0.0000
               WELLS =           0.0000                 WELLS =           0.0000
     HEAD DEP BOUNDS =       95570.5313       HEAD DEP BOUNDS =         749.5200

            TOTAL IN =       95570.5313              TOTAL IN =         749.5200

          OUT:                                     OUT:
          ----                                     ----
             STORAGE =       15001.0791               STORAGE =           0.0000
       CONSTANT HEAD =           0.0000         CONSTANT HEAD =           0.0000
               WELLS =           0.0000                 WELLS =           0.0000
     HEAD DEP BOUNDS =       80574.3750       HEAD DEP BOUNDS =         749.5873

           TOTAL OUT =       95575.4531             TOTAL OUT =         749.5873

            IN - OUT =          -4.9219              IN - OUT =      -6.7383E-02

 PERCENT DISCREPANCY =          -0.01     PERCENT DISCREPANCY =          -0.01






         TIME SUMMARY AT END OF TIME STEP   12 IN STRESS PERIOD    3
                    SECONDS     MINUTES      HOURS       DAYS        YEARS
                    -----------------------------------------------------------
   TIME STEP LENGTH  86400.      1440.0      24.000      1.0000     2.73785E-03
 STRESS PERIOD TIME 1.03680E+06  17280.      288.00      12.000     3.28542E-02
         TOTAL TIME 9.76320E+06 1.62720E+05  2712.0      113.00     0.30938    
1
 
 SOLVING FOR HEAD 

 OUTPUT CONTROL FOR STRESS PERIOD    3   TIME STEP   13
    SAVE HEAD FOR ALL LAYERS
    SAVE DRAWDOWN FOR ALL LAYERS
    SAVE BUDGET
    PRINT HEAD FOR ALL LAYERS
    PRINT BUDGET
 UBDSV1 SAVING "         STORAGE" ON UNIT  53 AT TIME STEP 13, STRESS PERIOD   3
 UBDSV2 SAVING "   CONSTANT HEAD" ON UNIT  53 AT TIME STEP 13, STRESS PERIOD   3
 UBDSV1 SAVING "FLOW RIGHT FACE " ON UNIT  53 AT TIME STEP 13, STRESS PERIOD   3
 UBDSV1 SAVING "FLOW FRONT FACE " ON UNIT  53 AT TIME STEP 13, STRESS PERIOD   3
 UBDSV1 SAVING "FLOW LOWER FACE " ON UNIT  53 AT TIME STEP 13, STRESS PERIOD   3
1
              HEAD IN LAYER   1 AT END OF TIME STEP  13 IN STRESS PERIOD    3
  ---------------------------------------------------------------------------

            1           2           3           4           5
 ............................................................
   1    9.998       7.499       5.000       2.502      2.9983E-03
   2    9.998       7.499       5.000       2.502      2.9983E-03
   3    9.998       7.499       5.000       2.502      2.9983E-03
   4    9.998       7.499       5.000       2.502      2.9983E-03
   5    9.998       7.499       5.000       2.502      2.9983E-03
1
              HEAD IN LAYER   2 AT END OF TIME STEP  13 IN STRESS PERIOD    3
  ---------------------------------------------------------------------------

            1           2           3           4           5
 ............................................................
   1    9.998       7.499       5.000       2.502      2.9983E-03
   2    9.998       7.499       5.000       2.502      2.9983E-03
   3    9.998       7.499       5.000       2.502      2.9983E-03
   4    9.998       7.499       5.000       2.502      2.9983E-03
   5    9.998       7.499       5.000       2.502      2.9983E-03
1
              HEAD IN LAYER   3 AT END OF TIME STEP  13 IN STRESS PERIOD    3
  ---------------------------------------------------------------------------

            1           2           3           4           5
 ............................................................
   1    9.998       7.499       5.000       2.502      2.9983E-03
   2    9.998       7.499       5.000       2.502      2.9983E-03
   3    9.998       7.499       5.000       2.502      2.9983E-03
   4    9.998       7.499       5.000       2.502      2.9983E-03
   5    9.998       7.499       5.000       2.502      2.9983E-03
1
              HEAD IN LAYER   4 AT END OF TIME STEP  13 IN STRESS PERIOD    3
  ---------------------------------------------------------------------------

            1           2           3           4           5
 ............................................................
   1    9.998       7.499       5.000       2.502      2.9983E-03
   2    9.998       7.499       5.000       2.502      2.9983E-03
   3    9.998       7.499       5.000       2.502      2.9983E-03
   4    9.998       7.499       5.000       2.502      2.9983E-03
   5    9.998       7.499       5.000       2.502      2.9983E-03
1
              HEAD IN LAYER   5 AT END OF TIME STEP  13 IN STRESS PERIOD    3
  ---------------------------------------------------------------------------

            1           2           3           4           5
 ............................................................
   1    9.998       7.499       5.000       2.502      2.9983E-03
   2    9.998       7.499       5.000       2.502      2.9983E-03
   3    9.998       7.499       5.000       2.502      2.9983E-03
   4    9.998       7.499       5.000       2.502      2.9983E-03
   5    9.998       7.499       5.000       2.502      2.9983E-03

 HEAD WILL BE SAVED ON UNIT   51 AT END OF TIME STEP   13, STRESS PERIOD    3

 DRAWDOWN WILL BE SAVED ON UNIT   52 AT END OF TIME STEP   13, STRESS PERIOD    3
1
  VOLUMETRIC BUDGET FOR ENTIRE MODEL AT END OF TIME STEP   13, STRESS PERIOD   3
  ------------------------------------------------------------------------------

     CUMULATIVE VOLUMES      L**3       RATES FOR THIS TIME STEP      L**3/T
     ------------------                 ------------------------

           IN:                                      IN:
           ---                                      ---
             STORAGE =           0.0000               STORAGE =           0.0000
       CONSTANT HEAD =           0.0000         CONSTANT HEAD =           0.0000
               WELLS =           0.0000                 WELLS =           0.0000
     HEAD DEP BOUNDS =       96320.0547       HEAD DEP BOUNDS =         749.5200

            TOTAL IN =       96320.0547              TOTAL IN =         749.5200

          OUT:                                     OUT:
          ----                                     ----
             STORAGE =       15001.0791               STORAGE =           0.0000
       CONSTANT HEAD =           0.0000         CONSTANT HEAD =           0.0000
               WELLS =           0.0000                 WELLS =           0.0000
     HEAD DEP BOUNDS =       81323.9609       HEAD DEP BOUNDS =         749.5873

           TOTAL OUT =       96325.0391             TOTAL OUT =         749.5873

            IN - OUT =          -4.9844              IN - OUT =      -6.7383E-02

 PERCENT DISCREPANCY =          -0.01     PERCENT DISCREPANCY =          -0.01






         TIME SUMMARY AT END OF TIME STEP   13 IN STRESS PERIOD    3
                    SECONDS     MINUTES      HOURS       DAYS        YEARS
                    -----------------------------------------------------------
   TIME STEP LENGTH  86400.      1440.0      24.000      1.0000     2.73785E-03
 STRESS PERIOD TIME 1.12320E+06  18720.      312.00      13.000     3.55921E-02
         TOTAL TIME 9.84960E+06 1.64160E+05  2736.0      114.00     0.31211    
1
 
 SOLVING FOR HEAD 

 OUTPUT CONTROL FOR STRESS PERIOD    3   TIME STEP   14
    SAVE HEAD FOR ALL LAYERS
    SAVE DRAWDOWN FOR ALL LAYERS
    SAVE BUDGET
    PRINT HEAD FOR ALL LAYERS
    PRINT BUDGET
 UBDSV1 SAVING "         STORAGE" ON UNIT  53 AT TIME STEP 14, STRESS PERIOD   3
 UBDSV2 SAVING "   CONSTANT HEAD" ON UNIT  53 AT TIME STEP 14, STRESS PERIOD   3
 UBDSV1 SAVING "FLOW RIGHT FACE " ON UNIT  53 AT TIME STEP 14, STRESS PERIOD   3
 UBDSV1 SAVING "FLOW FRONT FACE " ON UNIT  53 AT TIME STEP 14, STRESS PERIOD   3
 UBDSV1 SAVING "FLOW LOWER FACE " ON UNIT  53 AT TIME STEP 14, STRESS PERIOD   3
1
              HEAD IN LAYER   1 AT END OF TIME STEP  14 IN STRESS PERIOD    3
  ---------------------------------------------------------------------------

            1           2           3           4           5
 ............................................................
   1    9.998       7.499       5.000       2.502      2.9983E-03
   2    9.998       7.499       5.000       2.502      2.9983E-03
   3    9.998       7.499       5.000       2.502      2.9983E-03
   4    9.998       7.499       5.000       2.502      2.9983E-03
   5    9.998       7.499       5.000       2.502      2.9983E-03
1
              HEAD IN LAYER   2 AT END OF TIME STEP  14 IN STRESS PERIOD    3
  ---------------------------------------------------------------------------

            1           2           3           4           5
 ............................................................
   1    9.998       7.499       5.000       2.502      2.9983E-03
   2    9.998       7.499       5.000       2.502      2.9983E-03
   3    9.998       7.499       5.000       2.502      2.9983E-03
   4    9.998       7.499       5.000       2.502      2.9983E-03
   5    9.998       7.499       5.000       2.502      2.9983E-03
1
              HEAD IN LAYER   3 AT END OF TIME STEP  14 IN STRESS PERIOD    3
  ---------------------------------------------------------------------------

            1           2           3           4           5
 ............................................................
   1    9.998       7.499       5.000       2.502      2.9983E-03
   2    9.998       7.499       5.000       2.502      2.9983E-03
   3    9.998       7.499       5.000       2.502      2.9983E-03
   4    9.998       7.499       5.000       2.502      2.9983E-03
   5    9.998       7.499       5.000       2.502      2.9983E-03
1
              HEAD IN LAYER   4 AT END OF TIME STEP  14 IN STRESS PERIOD    3
  ---------------------------------------------------------------------------

            1           2           3           4           5
 ............................................................
   1    9.998       7.499       5.000       2.502      2.9983E-03
   2    9.998       7.499       5.000       2.502      2.9983E-03
   3    9.998       7.499       5.000       2.502      2.9983E-03
   4    9.998       7.499       5.000       2.502      2.9983E-03
   5    9.998       7.499       5.000       2.502      2.9983E-03
1
              HEAD IN LAYER   5 AT END OF TIME STEP  14 IN STRESS PERIOD    3
  ---------------------------------------------------------------------------

            1           2           3           4           5
 ............................................................
   1    9.998       7.499       5.000       2.502      2.9983E-03
   2    9.998       7.499       5.000       2.502      2.9983E-03
   3    9.998       7.499       5.000       2.502      2.9983E-03
   4    9.998       7.499       5.000       2.502      2.9983E-03
   5    9.998       7.499       5.000       2.502      2.9983E-03

 HEAD WILL BE SAVED ON UNIT   51 AT END OF TIME STEP   14, STRESS PERIOD    3

 DRAWDOWN WILL BE SAVED ON UNIT   52 AT END OF TIME STEP   14, STRESS PERIOD    3
1
  VOLUMETRIC BUDGET FOR ENTIRE MODEL AT END OF TIME STEP   14, STRESS PERIOD   3
  ------------------------------------------------------------------------------

     CUMULATIVE VOLUMES      L**3       RATES FOR THIS TIME STEP      L**3/T
     ------------------                 ------------------------

           IN:                                      IN:
           ---                                      ---
             STORAGE =           0.0000               STORAGE =           0.0000
       CONSTANT HEAD =           0.0000         CONSTANT HEAD =           0.0000
               WELLS =           0.0000                 WELLS =           0.0000
     HEAD DEP BOUNDS =       97069.5781       HEAD DEP BOUNDS =         749.5200

            TOTAL IN =       97069.5781              TOTAL IN =         749.5200

          OUT:                                     OUT:
          ----                                     ----
             STORAGE =       15001.0791               STORAGE =           0.0000
       CONSTANT HEAD =           0.0000         CONSTANT HEAD =           0.0000
               WELLS =           0.0000                 WELLS =           0.0000
     HEAD DEP BOUNDS =       82073.5469       HEAD DEP BOUNDS =         749.5873

           TOTAL OUT =       97074.6250             TOTAL OUT =         749.5873

            IN - OUT =          -5.0469              IN - OUT =      -6.7383E-02

 PERCENT DISCREPANCY =          -0.01     PERCENT DISCREPANCY =          -0.01






         TIME SUMMARY AT END OF TIME STEP   14 IN STRESS PERIOD    3
                    SECONDS     MINUTES      HOURS       DAYS        YEARS
                    -----------------------------------------------------------
   TIME STEP LENGTH  86400.      1440.0      24.000      1.0000     2.73785E-03
 STRESS PERIOD TIME 1.20960E+06  20160.      336.00      14.000     3.83299E-02
         TOTAL TIME 9.93600E+06 1.65600E+05  2760.0      115.00     0.31485    
1
 
 SOLVING FOR HEAD 

 OUTPUT CONTROL FOR STRESS PERIOD    3   TIME STEP   15
    SAVE HEAD FOR ALL LAYERS
    SAVE DRAWDOWN FOR ALL LAYERS
    SAVE BUDGET
    PRINT HEAD FOR ALL LAYERS
    PRINT BUDGET
 UBDSV1 SAVING "         STORAGE" ON UNIT  53 AT TIME STEP 15, STRESS PERIOD   3
 UBDSV2 SAVING "   CONSTANT HEAD" ON UNIT  53 AT TIME STEP 15, STRESS PERIOD   3
 UBDSV1 SAVING "FLOW RIGHT FACE " ON UNIT  53 AT TIME STEP 15, STRESS PERIOD   3
 UBDSV1 SAVING "FLOW FRONT FACE " ON UNIT  53 AT TIME STEP 15, STRESS PERIOD   3
 UBDSV1 SAVING "FLOW LOWER FACE " ON UNIT  53 AT TIME STEP 15, STRESS PERIOD   3
1
              HEAD IN LAYER   1 AT END OF TIME STEP  15 IN STRESS PERIOD    3
  ---------------------------------------------------------------------------

            1           2           3           4           5
 ............................................................
   1    9.998       7.499       5.000       2.502      2.9983E-03
   2    9.998       7.499       5.000       2.502      2.9983E-03
   3    9.998       7.499       5.000       2.502      2.9983E-03
   4    9.998       7.499       5.000       2.502      2.9983E-03
   5    9.998       7.499       5.000       2.502      2.9983E-03
1
              HEAD IN LAYER   2 AT END OF TIME STEP  15 IN STRESS PERIOD    3
  ---------------------------------------------------------------------------

            1           2           3           4           5
 ............................................................
   1    9.998       7.499       5.000       2.502      2.9983E-03
   2    9.998       7.499       5.000       2.502      2.9983E-03
   3    9.998       7.499       5.000       2.502      2.9983E-03
   4    9.998       7.499       5.000       2.502      2.9983E-03
   5    9.998       7.499       5.000       2.502      2.9983E-03
1
              HEAD IN LAYER   3 AT END OF TIME STEP  15 IN STRESS PERIOD    3
  ---------------------------------------------------------------------------

            1           2           3           4           5
 ............................................................
   1    9.998       7.499       5.000       2.502      2.9983E-03
   2    9.998       7.499       5.000       2.502      2.9983E-03
   3    9.998       7.499       5.000       2.502      2.9983E-03
   4    9.998       7.499       5.000       2.502      2.9983E-03
   5    9.998       7.499       5.000       2.502      2.9983E-03
1
              HEAD IN LAYER   4 AT END OF TIME STEP  15 IN STRESS PERIOD    3
  ---------------------------------------------------------------------------

            1           2           3           4           5
 ............................................................
   1    9.998       7.499       5.000       2.502      2.9983E-03
   2    9.998       7.499       5.000       2.502      2.9983E-03
   3    9.998       7.499       5.000       2.502      2.9983E-03
   4    9.998       7.499       5.000       2.502      2.9983E-03
   5    9.998       7.499       5.000       2.502      2.9983E-03
1
              HEAD IN LAYER   5 AT END OF TIME STEP  15 IN STRESS PERIOD    3
  ---------------------------------------------------------------------------

            1           2           3           4           5
 ............................................................
   1    9.998       7.499       5.000       2.502      2.9983E-03
   2    9.998       7.499       5.000       2.502      2.9983E-03
   3    9.998       7.499       5.000       2.502      2.9983E-03
   4    9.998       7.499       5.000       2.502      2.9983E-03
   5    9.998       7.499       5.000       2.502      2.9983E-03

 HEAD WILL BE SAVED ON UNIT   51 AT END OF TIME STEP   15, STRESS PERIOD    3

 DRAWDOWN WILL BE SAVED ON UNIT   52 AT END OF TIME STEP   15, STRESS PERIOD    3
1
  VOLUMETRIC BUDGET FOR ENTIRE MODEL AT END OF TIME STEP   15, STRESS PERIOD   3
  ------------------------------------------------------------------------------

     CUMULATIVE VOLUMES      L**3       RATES FOR THIS TIME STEP      L**3/T
     ------------------                 ------------------------

           IN:                                      IN:
           ---                                      ---
             STORAGE =           0.0000               STORAGE =           0.0000
       CONSTANT HEAD =           0.0000         CONSTANT HEAD =           0.0000
               WELLS =           0.0000                 WELLS =           0.0000
     HEAD DEP BOUNDS =       97819.1016       HEAD DEP BOUNDS =         749.5200

            TOTAL IN =       97819.1016              TOTAL IN =         749.5200

          OUT:                                     OUT:
          ----                                     ----
             STORAGE =       15001.0791               STORAGE =           0.0000
       CONSTANT HEAD =           0.0000         CONSTANT HEAD =           0.0000
               WELLS =           0.0000                 WELLS =           0.0000
     HEAD DEP BOUNDS =       82823.1328       HEAD DEP BOUNDS =         749.5873

           TOTAL OUT =       97824.2109             TOTAL OUT =         749.5873

            IN - OUT =          -5.1094              IN - OUT =      -6.7383E-02

 PERCENT DISCREPANCY =          -0.01     PERCENT DISCREPANCY =          -0.01






         TIME SUMMARY AT END OF TIME STEP   15 IN STRESS PERIOD    3
                    SECONDS     MINUTES      HOURS       DAYS        YEARS
                    -----------------------------------------------------------
   TIME STEP LENGTH  86400.      1440.0      24.000      1.0000     2.73785E-03
 STRESS PERIOD TIME 1.29600E+06  21600.      360.00      15.000     4.10678E-02
         TOTAL TIME 1.00224E+07 1.67040E+05  2784.0      116.00     0.31759    
1
 
 SOLVING FOR HEAD 

 OUTPUT CONTROL FOR STRESS PERIOD    3   TIME STEP   16
    SAVE HEAD FOR ALL LAYERS
    SAVE DRAWDOWN FOR ALL LAYERS
    SAVE BUDGET
    PRINT HEAD FOR ALL LAYERS
    PRINT BUDGET
 UBDSV1 SAVING "         STORAGE" ON UNIT  53 AT TIME STEP 16, STRESS PERIOD   3
 UBDSV2 SAVING "   CONSTANT HEAD" ON UNIT  53 AT TIME STEP 16, STRESS PERIOD   3
 UBDSV1 SAVING "FLOW RIGHT FACE " ON UNIT  53 AT TIME STEP 16, STRESS PERIOD   3
 UBDSV1 SAVING "FLOW FRONT FACE " ON UNIT  53 AT TIME STEP 16, STRESS PERIOD   3
 UBDSV1 SAVING "FLOW LOWER FACE " ON UNIT  53 AT TIME STEP 16, STRESS PERIOD   3
1
              HEAD IN LAYER   1 AT END OF TIME STEP  16 IN STRESS PERIOD    3
  ---------------------------------------------------------------------------

            1           2           3           4           5
 ............................................................
   1    9.998       7.499       5.000       2.502      2.9983E-03
   2    9.998       7.499       5.000       2.502      2.9983E-03
   3    9.998       7.499       5.000       2.502      2.9983E-03
   4    9.998       7.499       5.000       2.502      2.9983E-03
   5    9.998       7.499       5.000       2.502      2.9983E-03
1
              HEAD IN LAYER   2 AT END OF TIME STEP  16 IN STRESS PERIOD    3
  ---------------------------------------------------------------------------

            1           2           3           4           5
 ............................................................
   1    9.998       7.499       5.000       2.502      2.9983E-03
   2    9.998       7.499       5.000       2.502      2.9983E-03
   3    9.998       7.499       5.000       2.502      2.9983E-03
   4    9.998       7.499       5.000       2.502      2.9983E-03
   5    9.998       7.499       5.000       2.502      2.9983E-03
1
              HEAD IN LAYER   3 AT END OF TIME STEP  16 IN STRESS PERIOD    3
  ---------------------------------------------------------------------------

            1           2           3           4           5
 ............................................................
   1    9.998       7.499       5.000       2.502      2.9983E-03
   2    9.998       7.499       5.000       2.502      2.9983E-03
   3    9.998       7.499       5.000       2.502      2.9983E-03
   4    9.998       7.499       5.000       2.502      2.9983E-03
   5    9.998       7.499       5.000       2.502      2.9983E-03
1
              HEAD IN LAYER   4 AT END OF TIME STEP  16 IN STRESS PERIOD    3
  ---------------------------------------------------------------------------

            1           2           3           4           5
 ............................................................
   1    9.998       7.499       5.000       2.502      2.9983E-03
   2    9.998       7.499       5.000       2.502      2.9983E-03
   3    9.998       7.499       5.000       2.502      2.9983E-03
   4    9.998       7.499       5.000       2.502      2.9983E-03
   5    9.998       7.499       5.000       2.502      2.9983E-03
1
              HEAD IN LAYER   5 AT END OF TIME STEP  16 IN STRESS PERIOD    3
  ---------------------------------------------------------------------------

            1           2           3           4           5
 ............................................................
   1    9.998       7.499       5.000       2.502      2.9983E-03
   2    9.998       7.499       5.000       2.502      2.9983E-03
   3    9.998       7.499       5.000       2.502      2.9983E-03
   4    9.998       7.499       5.000       2.502      2.9983E-03
   5    9.998       7.499       5.000       2.502      2.9983E-03

 HEAD WILL BE SAVED ON UNIT   51 AT END OF TIME STEP   16, STRESS PERIOD    3

 DRAWDOWN WILL BE SAVED ON UNIT   52 AT END OF TIME STEP   16, STRESS PERIOD    3
1
  VOLUMETRIC BUDGET FOR ENTIRE MODEL AT END OF TIME STEP   16, STRESS PERIOD   3
  ------------------------------------------------------------------------------

     CUMULATIVE VOLUMES      L**3       RATES FOR THIS TIME STEP      L**3/T
     ------------------                 ------------------------

           IN:                                      IN:
           ---                                      ---
             STORAGE =           0.0000               STORAGE =           0.0000
       CONSTANT HEAD =           0.0000         CONSTANT HEAD =           0.0000
               WELLS =           0.0000                 WELLS =           0.0000
     HEAD DEP BOUNDS =       98568.6250       HEAD DEP BOUNDS =         749.5200

            TOTAL IN =       98568.6250              TOTAL IN =         749.5200

          OUT:                                     OUT:
          ----                                     ----
             STORAGE =       15001.0791               STORAGE =           0.0000
       CONSTANT HEAD =           0.0000         CONSTANT HEAD =           0.0000
               WELLS =           0.0000                 WELLS =           0.0000
     HEAD DEP BOUNDS =       83572.7188       HEAD DEP BOUNDS =         749.5873

           TOTAL OUT =       98573.7969             TOTAL OUT =         749.5873

            IN - OUT =          -5.1719              IN - OUT =      -6.7383E-02

 PERCENT DISCREPANCY =          -0.01     PERCENT DISCREPANCY =          -0.01






         TIME SUMMARY AT END OF TIME STEP   16 IN STRESS PERIOD    3
                    SECONDS     MINUTES      HOURS       DAYS        YEARS
                    -----------------------------------------------------------
   TIME STEP LENGTH  86400.      1440.0      24.000      1.0000     2.73785E-03
 STRESS PERIOD TIME 1.38240E+06  23040.      384.00      16.000     4.38056E-02
         TOTAL TIME 1.01088E+07 1.68480E+05  2808.0      117.00     0.32033    
1
 
 SOLVING FOR HEAD 

 OUTPUT CONTROL FOR STRESS PERIOD    3   TIME STEP   17
    SAVE HEAD FOR ALL LAYERS
    SAVE DRAWDOWN FOR ALL LAYERS
    SAVE BUDGET
    PRINT HEAD FOR ALL LAYERS
    PRINT BUDGET
 UBDSV1 SAVING "         STORAGE" ON UNIT  53 AT TIME STEP 17, STRESS PERIOD   3
 UBDSV2 SAVING "   CONSTANT HEAD" ON UNIT  53 AT TIME STEP 17, STRESS PERIOD   3
 UBDSV1 SAVING "FLOW RIGHT FACE " ON UNIT  53 AT TIME STEP 17, STRESS PERIOD   3
 UBDSV1 SAVING "FLOW FRONT FACE " ON UNIT  53 AT TIME STEP 17, STRESS PERIOD   3
 UBDSV1 SAVING "FLOW LOWER FACE " ON UNIT  53 AT TIME STEP 17, STRESS PERIOD   3
1
              HEAD IN LAYER   1 AT END OF TIME STEP  17 IN STRESS PERIOD    3
  ---------------------------------------------------------------------------

            1           2           3           4           5
 ............................................................
   1    9.998       7.499       5.000       2.502      2.9983E-03
   2    9.998       7.499       5.000       2.502      2.9983E-03
   3    9.998       7.499       5.000       2.502      2.9983E-03
   4    9.998       7.499       5.000       2.502      2.9983E-03
   5    9.998       7.499       5.000       2.502      2.9983E-03
1
              HEAD IN LAYER   2 AT END OF TIME STEP  17 IN STRESS PERIOD    3
  ---------------------------------------------------------------------------

            1           2           3           4           5
 ............................................................
   1    9.998       7.499       5.000       2.502      2.9983E-03
   2    9.998       7.499       5.000       2.502      2.9983E-03
   3    9.998       7.499       5.000       2.502      2.9983E-03
   4    9.998       7.499       5.000       2.502      2.9983E-03
   5    9.998       7.499       5.000       2.502      2.9983E-03
1
              HEAD IN LAYER   3 AT END OF TIME STEP  17 IN STRESS PERIOD    3
  ---------------------------------------------------------------------------

            1           2           3           4           5
 ............................................................
   1    9.998       7.499       5.000       2.502      2.9983E-03
   2    9.998       7.499       5.000       2.502      2.9983E-03
   3    9.998       7.499       5.000       2.502      2.9983E-03
   4    9.998       7.499       5.000       2.502      2.9983E-03
   5    9.998       7.499       5.000       2.502      2.9983E-03
1
              HEAD IN LAYER   4 AT END OF TIME STEP  17 IN STRESS PERIOD    3
  ---------------------------------------------------------------------------

            1           2           3           4           5
 ............................................................
   1    9.998       7.499       5.000       2.502      2.9983E-03
   2    9.998       7.499       5.000       2.502      2.9983E-03
   3    9.998       7.499       5.000       2.502      2.9983E-03
   4    9.998       7.499       5.000       2.502      2.9983E-03
   5    9.998       7.499       5.000       2.502      2.9983E-03
1
              HEAD IN LAYER   5 AT END OF TIME STEP  17 IN STRESS PERIOD    3
  ---------------------------------------------------------------------------

            1           2           3           4           5
 ............................................................
   1    9.998       7.499       5.000       2.502      2.9983E-03
   2    9.998       7.499       5.000       2.502      2.9983E-03
   3    9.998       7.499       5.000       2.502      2.9983E-03
   4    9.998       7.499       5.000       2.502      2.9983E-03
   5    9.998       7.499       5.000       2.502      2.9983E-03

 HEAD WILL BE SAVED ON UNIT   51 AT END OF TIME STEP   17, STRESS PERIOD    3

 DRAWDOWN WILL BE SAVED ON UNIT   52 AT END OF TIME STEP   17, STRESS PERIOD    3
1
  VOLUMETRIC BUDGET FOR ENTIRE MODEL AT END OF TIME STEP   17, STRESS PERIOD   3
  ------------------------------------------------------------------------------

     CUMULATIVE VOLUMES      L**3       RATES FOR THIS TIME STEP      L**3/T
     ------------------                 ------------------------

           IN:                                      IN:
           ---                                      ---
             STORAGE =           0.0000               STORAGE =           0.0000
       CONSTANT HEAD =           0.0000         CONSTANT HEAD =           0.0000
               WELLS =           0.0000                 WELLS =           0.0000
     HEAD DEP BOUNDS =       99318.1484       HEAD DEP BOUNDS =         749.5200

            TOTAL IN =       99318.1484              TOTAL IN =         749.5200

          OUT:                                     OUT:
          ----                                     ----
             STORAGE =       15001.0791               STORAGE =           0.0000
       CONSTANT HEAD =           0.0000         CONSTANT HEAD =           0.0000
               WELLS =           0.0000                 WELLS =           0.0000
     HEAD DEP BOUNDS =       84322.3047       HEAD DEP BOUNDS =         749.5873

           TOTAL OUT =       99323.3828             TOTAL OUT =         749.5873

            IN - OUT =          -5.2344              IN - OUT =      -6.7383E-02

 PERCENT DISCREPANCY =          -0.01     PERCENT DISCREPANCY =          -0.01






         TIME SUMMARY AT END OF TIME STEP   17 IN STRESS PERIOD    3
                    SECONDS     MINUTES      HOURS       DAYS        YEARS
                    -----------------------------------------------------------
   TIME STEP LENGTH  86400.      1440.0      24.000      1.0000     2.73785E-03
 STRESS PERIOD TIME 1.46880E+06  24480.      408.00      17.000     4.65435E-02
         TOTAL TIME 1.01952E+07 1.69920E+05  2832.0      118.00     0.32307    
1
 
 SOLVING FOR HEAD 

 OUTPUT CONTROL FOR STRESS PERIOD    3   TIME STEP   18
    SAVE HEAD FOR ALL LAYERS
    SAVE DRAWDOWN FOR ALL LAYERS
    SAVE BUDGET
    PRINT HEAD FOR ALL LAYERS
    PRINT BUDGET
 UBDSV1 SAVING "         STORAGE" ON UNIT  53 AT TIME STEP 18, STRESS PERIOD   3
 UBDSV2 SAVING "   CONSTANT HEAD" ON UNIT  53 AT TIME STEP 18, STRESS PERIOD   3
 UBDSV1 SAVING "FLOW RIGHT FACE " ON UNIT  53 AT TIME STEP 18, STRESS PERIOD   3
 UBDSV1 SAVING "FLOW FRONT FACE " ON UNIT  53 AT TIME STEP 18, STRESS PERIOD   3
 UBDSV1 SAVING "FLOW LOWER FACE " ON UNIT  53 AT TIME STEP 18, STRESS PERIOD   3
1
              HEAD IN LAYER   1 AT END OF TIME STEP  18 IN STRESS PERIOD    3
  ---------------------------------------------------------------------------

            1           2           3           4           5
 ............................................................
   1    9.998       7.499       5.000       2.502      2.9983E-03
   2    9.998       7.499       5.000       2.502      2.9983E-03
   3    9.998       7.499       5.000       2.502      2.9983E-03
   4    9.998       7.499       5.000       2.502      2.9983E-03
   5    9.998       7.499       5.000       2.502      2.9983E-03
1
              HEAD IN LAYER   2 AT END OF TIME STEP  18 IN STRESS PERIOD    3
  ---------------------------------------------------------------------------

            1           2           3           4           5
 ............................................................
   1    9.998       7.499       5.000       2.502      2.9983E-03
   2    9.998       7.499       5.000       2.502      2.9983E-03
   3    9.998       7.499       5.000       2.502      2.9983E-03
   4    9.998       7.499       5.000       2.502      2.9983E-03
   5    9.998       7.499       5.000       2.502      2.9983E-03
1
              HEAD IN LAYER   3 AT END OF TIME STEP  18 IN STRESS PERIOD    3
  ---------------------------------------------------------------------------

            1           2           3           4           5
 ............................................................
   1    9.998       7.499       5.000       2.502      2.9983E-03
   2    9.998       7.499       5.000       2.502      2.9983E-03
   3    9.998       7.499       5.000       2.502      2.9983E-03
   4    9.998       7.499       5.000       2.502      2.9983E-03
   5    9.998       7.499       5.000       2.502      2.9983E-03
1
              HEAD IN LAYER   4 AT END OF TIME STEP  18 IN STRESS PERIOD    3
  ---------------------------------------------------------------------------

            1           2           3           4           5
 ............................................................
   1    9.998       7.499       5.000       2.502      2.9983E-03
   2    9.998       7.499       5.000       2.502      2.9983E-03
   3    9.998       7.499       5.000       2.502      2.9983E-03
   4    9.998       7.499       5.000       2.502      2.9983E-03
   5    9.998       7.499       5.000       2.502      2.9983E-03
1
              HEAD IN LAYER   5 AT END OF TIME STEP  18 IN STRESS PERIOD    3
  ---------------------------------------------------------------------------

            1           2           3           4           5
 ............................................................
   1    9.998       7.499       5.000       2.502      2.9983E-03
   2    9.998       7.499       5.000       2.502      2.9983E-03
   3    9.998       7.499       5.000       2.502      2.9983E-03
   4    9.998       7.499       5.000       2.502      2.9983E-03
   5    9.998       7.499       5.000       2.502      2.9983E-03

 HEAD WILL BE SAVED ON UNIT   51 AT END OF TIME STEP   18, STRESS PERIOD    3

 DRAWDOWN WILL BE SAVED ON UNIT   52 AT END OF TIME STEP   18, STRESS PERIOD    3
1
  VOLUMETRIC BUDGET FOR ENTIRE MODEL AT END OF TIME STEP   18, STRESS PERIOD   3
  ------------------------------------------------------------------------------

     CUMULATIVE VOLUMES      L**3       RATES FOR THIS TIME STEP      L**3/T
     ------------------                 ------------------------

           IN:                                      IN:
           ---                                      ---
             STORAGE =           0.0000               STORAGE =           0.0000
       CONSTANT HEAD =           0.0000         CONSTANT HEAD =           0.0000
               WELLS =           0.0000                 WELLS =           0.0000
     HEAD DEP BOUNDS =      100067.6719       HEAD DEP BOUNDS =         749.5200

            TOTAL IN =      100067.6719              TOTAL IN =         749.5200

          OUT:                                     OUT:
          ----                                     ----
             STORAGE =       15001.0791               STORAGE =           0.0000
       CONSTANT HEAD =           0.0000         CONSTANT HEAD =           0.0000
               WELLS =           0.0000                 WELLS =           0.0000
     HEAD DEP BOUNDS =       85071.8906       HEAD DEP BOUNDS =         749.5873

           TOTAL OUT =      100072.9688             TOTAL OUT =         749.5873

            IN - OUT =          -5.2969              IN - OUT =      -6.7383E-02

 PERCENT DISCREPANCY =          -0.01     PERCENT DISCREPANCY =          -0.01






         TIME SUMMARY AT END OF TIME STEP   18 IN STRESS PERIOD    3
                    SECONDS     MINUTES      HOURS       DAYS        YEARS
                    -----------------------------------------------------------
   TIME STEP LENGTH  86400.      1440.0      24.000      1.0000     2.73785E-03
 STRESS PERIOD TIME 1.55520E+06  25920.      432.00      18.000     4.92813E-02
         TOTAL TIME 1.02816E+07 1.71360E+05  2856.0      119.00     0.32580    
1
 
 SOLVING FOR HEAD 

 OUTPUT CONTROL FOR STRESS PERIOD    3   TIME STEP   19
    SAVE HEAD FOR ALL LAYERS
    SAVE DRAWDOWN FOR ALL LAYERS
    SAVE BUDGET
    PRINT HEAD FOR ALL LAYERS
    PRINT BUDGET
 UBDSV1 SAVING "         STORAGE" ON UNIT  53 AT TIME STEP 19, STRESS PERIOD   3
 UBDSV2 SAVING "   CONSTANT HEAD" ON UNIT  53 AT TIME STEP 19, STRESS PERIOD   3
 UBDSV1 SAVING "FLOW RIGHT FACE " ON UNIT  53 AT TIME STEP 19, STRESS PERIOD   3
 UBDSV1 SAVING "FLOW FRONT FACE " ON UNIT  53 AT TIME STEP 19, STRESS PERIOD   3
 UBDSV1 SAVING "FLOW LOWER FACE " ON UNIT  53 AT TIME STEP 19, STRESS PERIOD   3
1
              HEAD IN LAYER   1 AT END OF TIME STEP  19 IN STRESS PERIOD    3
  ---------------------------------------------------------------------------

            1           2           3           4           5
 ............................................................
   1    9.998       7.499       5.000       2.502      2.9983E-03
   2    9.998       7.499       5.000       2.502      2.9983E-03
   3    9.998       7.499       5.000       2.502      2.9983E-03
   4    9.998       7.499       5.000       2.502      2.9983E-03
   5    9.998       7.499       5.000       2.502      2.9983E-03
1
              HEAD IN LAYER   2 AT END OF TIME STEP  19 IN STRESS PERIOD    3
  ---------------------------------------------------------------------------

            1           2           3           4           5
 ............................................................
   1    9.998       7.499       5.000       2.502      2.9983E-03
   2    9.998       7.499       5.000       2.502      2.9983E-03
   3    9.998       7.499       5.000       2.502      2.9983E-03
   4    9.998       7.499       5.000       2.502      2.9983E-03
   5    9.998       7.499       5.000       2.502      2.9983E-03
1
              HEAD IN LAYER   3 AT END OF TIME STEP  19 IN STRESS PERIOD    3
  ---------------------------------------------------------------------------

            1           2           3           4           5
 ............................................................
   1    9.998       7.499       5.000       2.502      2.9983E-03
   2    9.998       7.499       5.000       2.502      2.9983E-03
   3    9.998       7.499       5.000       2.502      2.9983E-03
   4    9.998       7.499       5.000       2.502      2.9983E-03
   5    9.998       7.499       5.000       2.502      2.9983E-03
1
              HEAD IN LAYER   4 AT END OF TIME STEP  19 IN STRESS PERIOD    3
  ---------------------------------------------------------------------------

            1           2           3           4           5
 ............................................................
   1    9.998       7.499       5.000       2.502      2.9983E-03
   2    9.998       7.499       5.000       2.502      2.9983E-03
   3    9.998       7.499       5.000       2.502      2.9983E-03
   4    9.998       7.499       5.000       2.502      2.9983E-03
   5    9.998       7.499       5.000       2.502      2.9983E-03
1
              HEAD IN LAYER   5 AT END OF TIME STEP  19 IN STRESS PERIOD    3
  ---------------------------------------------------------------------------

            1           2           3           4           5
 ............................................................
   1    9.998       7.499       5.000       2.502      2.9983E-03
   2    9.998       7.499       5.000       2.502      2.9983E-03
   3    9.998       7.499       5.000       2.502      2.9983E-03
   4    9.998       7.499       5.000       2.502      2.9983E-03
   5    9.998       7.499       5.000       2.502      2.9983E-03

 HEAD WILL BE SAVED ON UNIT   51 AT END OF TIME STEP   19, STRESS PERIOD    3

 DRAWDOWN WILL BE SAVED ON UNIT   52 AT END OF TIME STEP   19, STRESS PERIOD    3
1
  VOLUMETRIC BUDGET FOR ENTIRE MODEL AT END OF TIME STEP   19, STRESS PERIOD   3
  ------------------------------------------------------------------------------

     CUMULATIVE VOLUMES      L**3       RATES FOR THIS TIME STEP      L**3/T
     ------------------                 ------------------------

           IN:                                      IN:
           ---                                      ---
             STORAGE =           0.0000               STORAGE =           0.0000
       CONSTANT HEAD =           0.0000         CONSTANT HEAD =           0.0000
               WELLS =           0.0000                 WELLS =           0.0000
     HEAD DEP BOUNDS =      100817.1953       HEAD DEP BOUNDS =         749.5200

            TOTAL IN =      100817.1953              TOTAL IN =         749.5200

          OUT:                                     OUT:
          ----                                     ----
             STORAGE =       15001.0791               STORAGE =           0.0000
       CONSTANT HEAD =           0.0000         CONSTANT HEAD =           0.0000
               WELLS =           0.0000                 WELLS =           0.0000
     HEAD DEP BOUNDS =       85821.4766       HEAD DEP BOUNDS =         749.5873

           TOTAL OUT =      100822.5547             TOTAL OUT =         749.5873

            IN - OUT =          -5.3594              IN - OUT =      -6.7383E-02

 PERCENT DISCREPANCY =          -0.01     PERCENT DISCREPANCY =          -0.01






         TIME SUMMARY AT END OF TIME STEP   19 IN STRESS PERIOD    3
                    SECONDS     MINUTES      HOURS       DAYS        YEARS
                    -----------------------------------------------------------
   TIME STEP LENGTH  86400.      1440.0      24.000      1.0000     2.73785E-03
 STRESS PERIOD TIME 1.64160E+06  27360.      456.00      19.000     5.20192E-02
         TOTAL TIME 1.03680E+07 1.72800E+05  2880.0      120.00     0.32854    
1
 
 SOLVING FOR HEAD 

 OUTPUT CONTROL FOR STRESS PERIOD    3   TIME STEP   20
    SAVE HEAD FOR ALL LAYERS
    SAVE DRAWDOWN FOR ALL LAYERS
    SAVE BUDGET
    PRINT HEAD FOR ALL LAYERS
    PRINT BUDGET
 UBDSV1 SAVING "         STORAGE" ON UNIT  53 AT TIME STEP 20, STRESS PERIOD   3
 UBDSV2 SAVING "   CONSTANT HEAD" ON UNIT  53 AT TIME STEP 20, STRESS PERIOD   3
 UBDSV1 SAVING "FLOW RIGHT FACE " ON UNIT  53 AT TIME STEP 20, STRESS PERIOD   3
 UBDSV1 SAVING "FLOW FRONT FACE " ON UNIT  53 AT TIME STEP 20, STRESS PERIOD   3
 UBDSV1 SAVING "FLOW LOWER FACE " ON UNIT  53 AT TIME STEP 20, STRESS PERIOD   3
1
              HEAD IN LAYER   1 AT END OF TIME STEP  20 IN STRESS PERIOD    3
  ---------------------------------------------------------------------------

            1           2           3           4           5
 ............................................................
   1    9.998       7.499       5.000       2.502      2.9983E-03
   2    9.998       7.499       5.000       2.502      2.9983E-03
   3    9.998       7.499       5.000       2.502      2.9983E-03
   4    9.998       7.499       5.000       2.502      2.9983E-03
   5    9.998       7.499       5.000       2.502      2.9983E-03
1
              HEAD IN LAYER   2 AT END OF TIME STEP  20 IN STRESS PERIOD    3
  ---------------------------------------------------------------------------

            1           2           3           4           5
 ............................................................
   1    9.998       7.499       5.000       2.502      2.9983E-03
   2    9.998       7.499       5.000       2.502      2.9983E-03
   3    9.998       7.499       5.000       2.502      2.9983E-03
   4    9.998       7.499       5.000       2.502      2.9983E-03
   5    9.998       7.499       5.000       2.502      2.9983E-03
1
              HEAD IN LAYER   3 AT END OF TIME STEP  20 IN STRESS PERIOD    3
  ---------------------------------------------------------------------------

            1           2           3           4           5
 ............................................................
   1    9.998       7.499       5.000       2.502      2.9983E-03
   2    9.998       7.499       5.000       2.502      2.9983E-03
   3    9.998       7.499       5.000       2.502      2.9983E-03
   4    9.998       7.499       5.000       2.502      2.9983E-03
   5    9.998       7.499       5.000       2.502      2.9983E-03
1
              HEAD IN LAYER   4 AT END OF TIME STEP  20 IN STRESS PERIOD    3
  ---------------------------------------------------------------------------

            1           2           3           4           5
 ............................................................
   1    9.998       7.499       5.000       2.502      2.9983E-03
   2    9.998       7.499       5.000       2.502      2.9983E-03
   3    9.998       7.499       5.000       2.502      2.9983E-03
   4    9.998       7.499       5.000       2.502      2.9983E-03
   5    9.998       7.499       5.000       2.502      2.9983E-03
1
              HEAD IN LAYER   5 AT END OF TIME STEP  20 IN STRESS PERIOD    3
  ---------------------------------------------------------------------------

            1           2           3           4           5
 ............................................................
   1    9.998       7.499       5.000       2.502      2.9983E-03
   2    9.998       7.499       5.000       2.502      2.9983E-03
   3    9.998       7.499       5.000       2.502      2.9983E-03
   4    9.998       7.499       5.000       2.502      2.9983E-03
   5    9.998       7.499       5.000       2.502      2.9983E-03

 HEAD WILL BE SAVED ON UNIT   51 AT END OF TIME STEP   20, STRESS PERIOD    3

 DRAWDOWN WILL BE SAVED ON UNIT   52 AT END OF TIME STEP   20, STRESS PERIOD    3
1
  VOLUMETRIC BUDGET FOR ENTIRE MODEL AT END OF TIME STEP   20, STRESS PERIOD   3
  ------------------------------------------------------------------------------

     CUMULATIVE VOLUMES      L**3       RATES FOR THIS TIME STEP      L**3/T
     ------------------                 ------------------------

           IN:                                      IN:
           ---                                      ---
             STORAGE =           0.0000               STORAGE =           0.0000
       CONSTANT HEAD =           0.0000         CONSTANT HEAD =           0.0000
               WELLS =           0.0000                 WELLS =           0.0000
     HEAD DEP BOUNDS =      101566.7188       HEAD DEP BOUNDS =         749.5200

            TOTAL IN =      101566.7188              TOTAL IN =         749.5200

          OUT:                                     OUT:
          ----                                     ----
             STORAGE =       15001.0791               STORAGE =           0.0000
       CONSTANT HEAD =           0.0000         CONSTANT HEAD =           0.0000
               WELLS =           0.0000                 WELLS =           0.0000
     HEAD DEP BOUNDS =       86571.0625       HEAD DEP BOUNDS =         749.5873

           TOTAL OUT =      101572.1406             TOTAL OUT =         749.5873

            IN - OUT =          -5.4219              IN - OUT =      -6.7383E-02

 PERCENT DISCREPANCY =          -0.01     PERCENT DISCREPANCY =          -0.01






         TIME SUMMARY AT END OF TIME STEP   20 IN STRESS PERIOD    3
                    SECONDS     MINUTES      HOURS       DAYS        YEARS
                    -----------------------------------------------------------
   TIME STEP LENGTH  86400.      1440.0      24.000      1.0000     2.73785E-03
 STRESS PERIOD TIME 1.72800E+06  28800.      480.00      20.000     5.47570E-02
         TOTAL TIME 1.04544E+07 1.74240E+05  2904.0      121.00     0.33128    
1
 
 SOLVING FOR HEAD 

 OUTPUT CONTROL FOR STRESS PERIOD    3   TIME STEP   21
    SAVE HEAD FOR ALL LAYERS
    SAVE DRAWDOWN FOR ALL LAYERS
    SAVE BUDGET
    PRINT HEAD FOR ALL LAYERS
    PRINT BUDGET
 UBDSV1 SAVING "         STORAGE" ON UNIT  53 AT TIME STEP 21, STRESS PERIOD   3
 UBDSV2 SAVING "   CONSTANT HEAD" ON UNIT  53 AT TIME STEP 21, STRESS PERIOD   3
 UBDSV1 SAVING "FLOW RIGHT FACE " ON UNIT  53 AT TIME STEP 21, STRESS PERIOD   3
 UBDSV1 SAVING "FLOW FRONT FACE " ON UNIT  53 AT TIME STEP 21, STRESS PERIOD   3
 UBDSV1 SAVING "FLOW LOWER FACE " ON UNIT  53 AT TIME STEP 21, STRESS PERIOD   3
1
              HEAD IN LAYER   1 AT END OF TIME STEP  21 IN STRESS PERIOD    3
  ---------------------------------------------------------------------------

            1           2           3           4           5
 ............................................................
   1    9.998       7.499       5.000       2.502      2.9983E-03
   2    9.998       7.499       5.000       2.502      2.9983E-03
   3    9.998       7.499       5.000       2.502      2.9983E-03
   4    9.998       7.499       5.000       2.502      2.9983E-03
   5    9.998       7.499       5.000       2.502      2.9983E-03
1
              HEAD IN LAYER   2 AT END OF TIME STEP  21 IN STRESS PERIOD    3
  ---------------------------------------------------------------------------

            1           2           3           4           5
 ............................................................
   1    9.998       7.499       5.000       2.502      2.9983E-03
   2    9.998       7.499       5.000       2.502      2.9983E-03
   3    9.998       7.499       5.000       2.502      2.9983E-03
   4    9.998       7.499       5.000       2.502      2.9983E-03
   5    9.998       7.499       5.000       2.502      2.9983E-03
1
              HEAD IN LAYER   3 AT END OF TIME STEP  21 IN STRESS PERIOD    3
  ---------------------------------------------------------------------------

            1           2           3           4           5
 ............................................................
   1    9.998       7.499       5.000       2.502      2.9983E-03
   2    9.998       7.499       5.000       2.502      2.9983E-03
   3    9.998       7.499       5.000       2.502      2.9983E-03
   4    9.998       7.499       5.000       2.502      2.9983E-03
   5    9.998       7.499       5.000       2.502      2.9983E-03
1
              HEAD IN LAYER   4 AT END OF TIME STEP  21 IN STRESS PERIOD    3
  ---------------------------------------------------------------------------

            1           2           3           4           5
 ............................................................
   1    9.998       7.499       5.000       2.502      2.9983E-03
   2    9.998       7.499       5.000       2.502      2.9983E-03
   3    9.998       7.499       5.000       2.502      2.9983E-03
   4    9.998       7.499       5.000       2.502      2.9983E-03
   5    9.998       7.499       5.000       2.502      2.9983E-03
1
              HEAD IN LAYER   5 AT END OF TIME STEP  21 IN STRESS PERIOD    3
  ---------------------------------------------------------------------------

            1           2           3           4           5
 ............................................................
   1    9.998       7.499       5.000       2.502      2.9983E-03
   2    9.998       7.499       5.000       2.502      2.9983E-03
   3    9.998       7.499       5.000       2.502      2.9983E-03
   4    9.998       7.499       5.000       2.502      2.9983E-03
   5    9.998       7.499       5.000       2.502      2.9983E-03

 HEAD WILL BE SAVED ON UNIT   51 AT END OF TIME STEP   21, STRESS PERIOD    3

 DRAWDOWN WILL BE SAVED ON UNIT   52 AT END OF TIME STEP   21, STRESS PERIOD    3
1
  VOLUMETRIC BUDGET FOR ENTIRE MODEL AT END OF TIME STEP   21, STRESS PERIOD   3
  ------------------------------------------------------------------------------

     CUMULATIVE VOLUMES      L**3       RATES FOR THIS TIME STEP      L**3/T
     ------------------                 ------------------------

           IN:                                      IN:
           ---                                      ---
             STORAGE =           0.0000               STORAGE =           0.0000
       CONSTANT HEAD =           0.0000         CONSTANT HEAD =           0.0000
               WELLS =           0.0000                 WELLS =           0.0000
     HEAD DEP BOUNDS =      102316.2422       HEAD DEP BOUNDS =         749.5200

            TOTAL IN =      102316.2422              TOTAL IN =         749.5200

          OUT:                                     OUT:
          ----                                     ----
             STORAGE =       15001.0791               STORAGE =           0.0000
       CONSTANT HEAD =           0.0000         CONSTANT HEAD =           0.0000
               WELLS =           0.0000                 WELLS =           0.0000
     HEAD DEP BOUNDS =       87320.6484       HEAD DEP BOUNDS =         749.5873

           TOTAL OUT =      102321.7266             TOTAL OUT =         749.5873

            IN - OUT =          -5.4844              IN - OUT =      -6.7383E-02

 PERCENT DISCREPANCY =          -0.01     PERCENT DISCREPANCY =          -0.01






         TIME SUMMARY AT END OF TIME STEP   21 IN STRESS PERIOD    3
                    SECONDS     MINUTES      HOURS       DAYS        YEARS
                    -----------------------------------------------------------
   TIME STEP LENGTH  86400.      1440.0      24.000      1.0000     2.73785E-03
 STRESS PERIOD TIME 1.81440E+06  30240.      504.00      21.000     5.74949E-02
         TOTAL TIME 1.05408E+07 1.75680E+05  2928.0      122.00     0.33402    
1
 
 SOLVING FOR HEAD 

 OUTPUT CONTROL FOR STRESS PERIOD    3   TIME STEP   22
    SAVE HEAD FOR ALL LAYERS
    SAVE DRAWDOWN FOR ALL LAYERS
    SAVE BUDGET
    PRINT HEAD FOR ALL LAYERS
    PRINT BUDGET
 UBDSV1 SAVING "         STORAGE" ON UNIT  53 AT TIME STEP 22, STRESS PERIOD   3
 UBDSV2 SAVING "   CONSTANT HEAD" ON UNIT  53 AT TIME STEP 22, STRESS PERIOD   3
 UBDSV1 SAVING "FLOW RIGHT FACE " ON UNIT  53 AT TIME STEP 22, STRESS PERIOD   3
 UBDSV1 SAVING "FLOW FRONT FACE " ON UNIT  53 AT TIME STEP 22, STRESS PERIOD   3
 UBDSV1 SAVING "FLOW LOWER FACE " ON UNIT  53 AT TIME STEP 22, STRESS PERIOD   3
1
              HEAD IN LAYER   1 AT END OF TIME STEP  22 IN STRESS PERIOD    3
  ---------------------------------------------------------------------------

            1           2           3           4           5
 ............................................................
   1    9.998       7.499       5.000       2.502      2.9983E-03
   2    9.998       7.499       5.000       2.502      2.9983E-03
   3    9.998       7.499       5.000       2.502      2.9983E-03
   4    9.998       7.499       5.000       2.502      2.9983E-03
   5    9.998       7.499       5.000       2.502      2.9983E-03
1
              HEAD IN LAYER   2 AT END OF TIME STEP  22 IN STRESS PERIOD    3
  ---------------------------------------------------------------------------

            1           2           3           4           5
 ............................................................
   1    9.998       7.499       5.000       2.502      2.9983E-03
   2    9.998       7.499       5.000       2.502      2.9983E-03
   3    9.998       7.499       5.000       2.502      2.9983E-03
   4    9.998       7.499       5.000       2.502      2.9983E-03
   5    9.998       7.499       5.000       2.502      2.9983E-03
1
              HEAD IN LAYER   3 AT END OF TIME STEP  22 IN STRESS PERIOD    3
  ---------------------------------------------------------------------------

            1           2           3           4           5
 ............................................................
   1    9.998       7.499       5.000       2.502      2.9983E-03
   2    9.998       7.499       5.000       2.502      2.9983E-03
   3    9.998       7.499       5.000       2.502      2.9983E-03
   4    9.998       7.499       5.000       2.502      2.9983E-03
   5    9.998       7.499       5.000       2.502      2.9983E-03
1
              HEAD IN LAYER   4 AT END OF TIME STEP  22 IN STRESS PERIOD    3
  ---------------------------------------------------------------------------

            1           2           3           4           5
 ............................................................
   1    9.998       7.499       5.000       2.502      2.9983E-03
   2    9.998       7.499       5.000       2.502      2.9983E-03
   3    9.998       7.499       5.000       2.502      2.9983E-03
   4    9.998       7.499       5.000       2.502      2.9983E-03
   5    9.998       7.499       5.000       2.502      2.9983E-03
1
              HEAD IN LAYER   5 AT END OF TIME STEP  22 IN STRESS PERIOD    3
  ---------------------------------------------------------------------------

            1           2           3           4           5
 ............................................................
   1    9.998       7.499       5.000       2.502      2.9983E-03
   2    9.998       7.499       5.000       2.502      2.9983E-03
   3    9.998       7.499       5.000       2.502      2.9983E-03
   4    9.998       7.499       5.000       2.502      2.9983E-03
   5    9.998       7.499       5.000       2.502      2.9983E-03

 HEAD WILL BE SAVED ON UNIT   51 AT END OF TIME STEP   22, STRESS PERIOD    3

 DRAWDOWN WILL BE SAVED ON UNIT   52 AT END OF TIME STEP   22, STRESS PERIOD    3
1
  VOLUMETRIC BUDGET FOR ENTIRE MODEL AT END OF TIME STEP   22, STRESS PERIOD   3
  ------------------------------------------------------------------------------

     CUMULATIVE VOLUMES      L**3       RATES FOR THIS TIME STEP      L**3/T
     ------------------                 ------------------------

           IN:                                      IN:
           ---                                      ---
             STORAGE =           0.0000               STORAGE =           0.0000
       CONSTANT HEAD =           0.0000         CONSTANT HEAD =           0.0000
               WELLS =           0.0000                 WELLS =           0.0000
     HEAD DEP BOUNDS =      103065.7656       HEAD DEP BOUNDS =         749.5200

            TOTAL IN =      103065.7656              TOTAL IN =         749.5200

          OUT:                                     OUT:
          ----                                     ----
             STORAGE =       15001.0791               STORAGE =           0.0000
       CONSTANT HEAD =           0.0000         CONSTANT HEAD =           0.0000
               WELLS =           0.0000                 WELLS =           0.0000
     HEAD DEP BOUNDS =       88070.2344       HEAD DEP BOUNDS =         749.5873

           TOTAL OUT =      103071.3125             TOTAL OUT =         749.5873

            IN - OUT =          -5.5469              IN - OUT =      -6.7383E-02

 PERCENT DISCREPANCY =          -0.01     PERCENT DISCREPANCY =          -0.01






         TIME SUMMARY AT END OF TIME STEP   22 IN STRESS PERIOD    3
                    SECONDS     MINUTES      HOURS       DAYS        YEARS
                    -----------------------------------------------------------
   TIME STEP LENGTH  86400.      1440.0      24.000      1.0000     2.73785E-03
 STRESS PERIOD TIME 1.90080E+06  31680.      528.00      22.000     6.02327E-02
         TOTAL TIME 1.06272E+07 1.77120E+05  2952.0      123.00     0.33676    
1
 
 SOLVING FOR HEAD 

 OUTPUT CONTROL FOR STRESS PERIOD    3   TIME STEP   23
    SAVE HEAD FOR ALL LAYERS
    SAVE DRAWDOWN FOR ALL LAYERS
    SAVE BUDGET
    PRINT HEAD FOR ALL LAYERS
    PRINT BUDGET
 UBDSV1 SAVING "         STORAGE" ON UNIT  53 AT TIME STEP 23, STRESS PERIOD   3
 UBDSV2 SAVING "   CONSTANT HEAD" ON UNIT  53 AT TIME STEP 23, STRESS PERIOD   3
 UBDSV1 SAVING "FLOW RIGHT FACE " ON UNIT  53 AT TIME STEP 23, STRESS PERIOD   3
 UBDSV1 SAVING "FLOW FRONT FACE " ON UNIT  53 AT TIME STEP 23, STRESS PERIOD   3
 UBDSV1 SAVING "FLOW LOWER FACE " ON UNIT  53 AT TIME STEP 23, STRESS PERIOD   3
1
              HEAD IN LAYER   1 AT END OF TIME STEP  23 IN STRESS PERIOD    3
  ---------------------------------------------------------------------------

            1           2           3           4           5
 ............................................................
   1    9.998       7.499       5.000       2.502      2.9983E-03
   2    9.998       7.499       5.000       2.502      2.9983E-03
   3    9.998       7.499       5.000       2.502      2.9983E-03
   4    9.998       7.499       5.000       2.502      2.9983E-03
   5    9.998       7.499       5.000       2.502      2.9983E-03
1
              HEAD IN LAYER   2 AT END OF TIME STEP  23 IN STRESS PERIOD    3
  ---------------------------------------------------------------------------

            1           2           3           4           5
 ............................................................
   1    9.998       7.499       5.000       2.502      2.9983E-03
   2    9.998       7.499       5.000       2.502      2.9983E-03
   3    9.998       7.499       5.000       2.502      2.9983E-03
   4    9.998       7.499       5.000       2.502      2.9983E-03
   5    9.998       7.499       5.000       2.502      2.9983E-03
1
              HEAD IN LAYER   3 AT END OF TIME STEP  23 IN STRESS PERIOD    3
  ---------------------------------------------------------------------------

            1           2           3           4           5
 ............................................................
   1    9.998       7.499       5.000       2.502      2.9983E-03
   2    9.998       7.499       5.000       2.502      2.9983E-03
   3    9.998       7.499       5.000       2.502      2.9983E-03
   4    9.998       7.499       5.000       2.502      2.9983E-03
   5    9.998       7.499       5.000       2.502      2.9983E-03
1
              HEAD IN LAYER   4 AT END OF TIME STEP  23 IN STRESS PERIOD    3
  ---------------------------------------------------------------------------

            1           2           3           4           5
 ............................................................
   1    9.998       7.499       5.000       2.502      2.9983E-03
   2    9.998       7.499       5.000       2.502      2.9983E-03
   3    9.998       7.499       5.000       2.502      2.9983E-03
   4    9.998       7.499       5.000       2.502      2.9983E-03
   5    9.998       7.499       5.000       2.502      2.9983E-03
1
              HEAD IN LAYER   5 AT END OF TIME STEP  23 IN STRESS PERIOD    3
  ---------------------------------------------------------------------------

            1           2           3           4           5
 ............................................................
   1    9.998       7.499       5.000       2.502      2.9983E-03
   2    9.998       7.499       5.000       2.502      2.9983E-03
   3    9.998       7.499       5.000       2.502      2.9983E-03
   4    9.998       7.499       5.000       2.502      2.9983E-03
   5    9.998       7.499       5.000       2.502      2.9983E-03

 HEAD WILL BE SAVED ON UNIT   51 AT END OF TIME STEP   23, STRESS PERIOD    3

 DRAWDOWN WILL BE SAVED ON UNIT   52 AT END OF TIME STEP   23, STRESS PERIOD    3
1
  VOLUMETRIC BUDGET FOR ENTIRE MODEL AT END OF TIME STEP   23, STRESS PERIOD   3
  ------------------------------------------------------------------------------

     CUMULATIVE VOLUMES      L**3       RATES FOR THIS TIME STEP      L**3/T
     ------------------                 ------------------------

           IN:                                      IN:
           ---                                      ---
             STORAGE =           0.0000               STORAGE =           0.0000
       CONSTANT HEAD =           0.0000         CONSTANT HEAD =           0.0000
               WELLS =           0.0000                 WELLS =           0.0000
     HEAD DEP BOUNDS =      103815.2891       HEAD DEP BOUNDS =         749.5200

            TOTAL IN =      103815.2891              TOTAL IN =         749.5200

          OUT:                                     OUT:
          ----                                     ----
             STORAGE =       15001.0791               STORAGE =           0.0000
       CONSTANT HEAD =           0.0000         CONSTANT HEAD =           0.0000
               WELLS =           0.0000                 WELLS =           0.0000
     HEAD DEP BOUNDS =       88819.8203       HEAD DEP BOUNDS =         749.5873

           TOTAL OUT =      103820.8984             TOTAL OUT =         749.5873

            IN - OUT =          -5.6094              IN - OUT =      -6.7383E-02

 PERCENT DISCREPANCY =          -0.01     PERCENT DISCREPANCY =          -0.01






         TIME SUMMARY AT END OF TIME STEP   23 IN STRESS PERIOD    3
                    SECONDS     MINUTES      HOURS       DAYS        YEARS
                    -----------------------------------------------------------
   TIME STEP LENGTH  86400.      1440.0      24.000      1.0000     2.73785E-03
 STRESS PERIOD TIME 1.98720E+06  33120.      552.00      23.000     6.29706E-02
         TOTAL TIME 1.07136E+07 1.78560E+05  2976.0      124.00     0.33949    
1
 
 SOLVING FOR HEAD 

 OUTPUT CONTROL FOR STRESS PERIOD    3   TIME STEP   24
    SAVE HEAD FOR ALL LAYERS
    SAVE DRAWDOWN FOR ALL LAYERS
    SAVE BUDGET
    PRINT HEAD FOR ALL LAYERS
    PRINT BUDGET
 UBDSV1 SAVING "         STORAGE" ON UNIT  53 AT TIME STEP 24, STRESS PERIOD   3
 UBDSV2 SAVING "   CONSTANT HEAD" ON UNIT  53 AT TIME STEP 24, STRESS PERIOD   3
 UBDSV1 SAVING "FLOW RIGHT FACE " ON UNIT  53 AT TIME STEP 24, STRESS PERIOD   3
 UBDSV1 SAVING "FLOW FRONT FACE " ON UNIT  53 AT TIME STEP 24, STRESS PERIOD   3
 UBDSV1 SAVING "FLOW LOWER FACE " ON UNIT  53 AT TIME STEP 24, STRESS PERIOD   3
1
              HEAD IN LAYER   1 AT END OF TIME STEP  24 IN STRESS PERIOD    3
  ---------------------------------------------------------------------------

            1           2           3           4           5
 ............................................................
   1    9.998       7.499       5.000       2.502      2.9983E-03
   2    9.998       7.499       5.000       2.502      2.9983E-03
   3    9.998       7.499       5.000       2.502      2.9983E-03
   4    9.998       7.499       5.000       2.502      2.9983E-03
   5    9.998       7.499       5.000       2.502      2.9983E-03
1
              HEAD IN LAYER   2 AT END OF TIME STEP  24 IN STRESS PERIOD    3
  ---------------------------------------------------------------------------

            1           2           3           4           5
 ............................................................
   1    9.998       7.499       5.000       2.502      2.9983E-03
   2    9.998       7.499       5.000       2.502      2.9983E-03
   3    9.998       7.499       5.000       2.502      2.9983E-03
   4    9.998       7.499       5.000       2.502      2.9983E-03
   5    9.998       7.499       5.000       2.502      2.9983E-03
1
              HEAD IN LAYER   3 AT END OF TIME STEP  24 IN STRESS PERIOD    3
  ---------------------------------------------------------------------------

            1           2           3           4           5
 ............................................................
   1    9.998       7.499       5.000       2.502      2.9983E-03
   2    9.998       7.499       5.000       2.502      2.9983E-03
   3    9.998       7.499       5.000       2.502      2.9983E-03
   4    9.998       7.499       5.000       2.502      2.9983E-03
   5    9.998       7.499       5.000       2.502      2.9983E-03
1
              HEAD IN LAYER   4 AT END OF TIME STEP  24 IN STRESS PERIOD    3
  ---------------------------------------------------------------------------

            1           2           3           4           5
 ............................................................
   1    9.998       7.499       5.000       2.502      2.9983E-03
   2    9.998       7.499       5.000       2.502      2.9983E-03
   3    9.998       7.499       5.000       2.502      2.9983E-03
   4    9.998       7.499       5.000       2.502      2.9983E-03
   5    9.998       7.499       5.000       2.502      2.9983E-03
1
              HEAD IN LAYER   5 AT END OF TIME STEP  24 IN STRESS PERIOD    3
  ---------------------------------------------------------------------------

            1           2           3           4           5
 ............................................................
   1    9.998       7.499       5.000       2.502      2.9983E-03
   2    9.998       7.499       5.000       2.502      2.9983E-03
   3    9.998       7.499       5.000       2.502      2.9983E-03
   4    9.998       7.499       5.000       2.502      2.9983E-03
   5    9.998       7.499       5.000       2.502      2.9983E-03

 HEAD WILL BE SAVED ON UNIT   51 AT END OF TIME STEP   24, STRESS PERIOD    3

 DRAWDOWN WILL BE SAVED ON UNIT   52 AT END OF TIME STEP   24, STRESS PERIOD    3
1
  VOLUMETRIC BUDGET FOR ENTIRE MODEL AT END OF TIME STEP   24, STRESS PERIOD   3
  ------------------------------------------------------------------------------

     CUMULATIVE VOLUMES      L**3       RATES FOR THIS TIME STEP      L**3/T
     ------------------                 ------------------------

           IN:                                      IN:
           ---                                      ---
             STORAGE =           0.0000               STORAGE =           0.0000
       CONSTANT HEAD =           0.0000         CONSTANT HEAD =           0.0000
               WELLS =           0.0000                 WELLS =           0.0000
     HEAD DEP BOUNDS =      104564.8125       HEAD DEP BOUNDS =         749.5200

            TOTAL IN =      104564.8125              TOTAL IN =         749.5200

          OUT:                                     OUT:
          ----                                     ----
             STORAGE =       15001.0791               STORAGE =           0.0000
       CONSTANT HEAD =           0.0000         CONSTANT HEAD =           0.0000
               WELLS =           0.0000                 WELLS =           0.0000
     HEAD DEP BOUNDS =       89569.4062       HEAD DEP BOUNDS =         749.5873

           TOTAL OUT =      104570.4844             TOTAL OUT =         749.5873

            IN - OUT =          -5.6719              IN - OUT =      -6.7383E-02

 PERCENT DISCREPANCY =          -0.01     PERCENT DISCREPANCY =          -0.01






         TIME SUMMARY AT END OF TIME STEP   24 IN STRESS PERIOD    3
                    SECONDS     MINUTES      HOURS       DAYS        YEARS
                    -----------------------------------------------------------
   TIME STEP LENGTH  86400.      1440.0      24.000      1.0000     2.73785E-03
 STRESS PERIOD TIME 2.07360E+06  34560.      576.00      24.000     6.57084E-02
         TOTAL TIME 1.08000E+07 1.80000E+05  3000.0      125.00     0.34223    
1
 
 SOLVING FOR HEAD 

 OUTPUT CONTROL FOR STRESS PERIOD    3   TIME STEP   25
    SAVE HEAD FOR ALL LAYERS
    SAVE DRAWDOWN FOR ALL LAYERS
    SAVE BUDGET
    PRINT HEAD FOR ALL LAYERS
    PRINT BUDGET
 UBDSV1 SAVING "         STORAGE" ON UNIT  53 AT TIME STEP 25, STRESS PERIOD   3
 UBDSV2 SAVING "   CONSTANT HEAD" ON UNIT  53 AT TIME STEP 25, STRESS PERIOD   3
 UBDSV1 SAVING "FLOW RIGHT FACE " ON UNIT  53 AT TIME STEP 25, STRESS PERIOD   3
 UBDSV1 SAVING "FLOW FRONT FACE " ON UNIT  53 AT TIME STEP 25, STRESS PERIOD   3
 UBDSV1 SAVING "FLOW LOWER FACE " ON UNIT  53 AT TIME STEP 25, STRESS PERIOD   3
1
              HEAD IN LAYER   1 AT END OF TIME STEP  25 IN STRESS PERIOD    3
  ---------------------------------------------------------------------------

            1           2           3           4           5
 ............................................................
   1    9.998       7.499       5.000       2.502      2.9983E-03
   2    9.998       7.499       5.000       2.502      2.9983E-03
   3    9.998       7.499       5.000       2.502      2.9983E-03
   4    9.998       7.499       5.000       2.502      2.9983E-03
   5    9.998       7.499       5.000       2.502      2.9983E-03
1
              HEAD IN LAYER   2 AT END OF TIME STEP  25 IN STRESS PERIOD    3
  ---------------------------------------------------------------------------

            1           2           3           4           5
 ............................................................
   1    9.998       7.499       5.000       2.502      2.9983E-03
   2    9.998       7.499       5.000       2.502      2.9983E-03
   3    9.998       7.499       5.000       2.502      2.9983E-03
   4    9.998       7.499       5.000       2.502      2.9983E-03
   5    9.998       7.499       5.000       2.502      2.9983E-03
1
              HEAD IN LAYER   3 AT END OF TIME STEP  25 IN STRESS PERIOD    3
  ---------------------------------------------------------------------------

            1           2           3           4           5
 ............................................................
   1    9.998       7.499       5.000       2.502      2.9983E-03
   2    9.998       7.499       5.000       2.502      2.9983E-03
   3    9.998       7.499       5.000       2.502      2.9983E-03
   4    9.998       7.499       5.000       2.502      2.9983E-03
   5    9.998       7.499       5.000       2.502      2.9983E-03
1
              HEAD IN LAYER   4 AT END OF TIME STEP  25 IN STRESS PERIOD    3
  ---------------------------------------------------------------------------

            1           2           3           4           5
 ............................................................
   1    9.998       7.499       5.000       2.502      2.9983E-03
   2    9.998       7.499       5.000       2.502      2.9983E-03
   3    9.998       7.499       5.000       2.502      2.9983E-03
   4    9.998       7.499       5.000       2.502      2.9983E-03
   5    9.998       7.499       5.000       2.502      2.9983E-03
1
              HEAD IN LAYER   5 AT END OF TIME STEP  25 IN STRESS PERIOD    3
  ---------------------------------------------------------------------------

            1           2           3           4           5
 ............................................................
   1    9.998       7.499       5.000       2.502      2.9983E-03
   2    9.998       7.499       5.000       2.502      2.9983E-03
   3    9.998       7.499       5.000       2.502      2.9983E-03
   4    9.998       7.499       5.000       2.502      2.9983E-03
   5    9.998       7.499       5.000       2.502      2.9983E-03

 HEAD WILL BE SAVED ON UNIT   51 AT END OF TIME STEP   25, STRESS PERIOD    3

 DRAWDOWN WILL BE SAVED ON UNIT   52 AT END OF TIME STEP   25, STRESS PERIOD    3
1
  VOLUMETRIC BUDGET FOR ENTIRE MODEL AT END OF TIME STEP   25, STRESS PERIOD   3
  ------------------------------------------------------------------------------

     CUMULATIVE VOLUMES      L**3       RATES FOR THIS TIME STEP      L**3/T
     ------------------                 ------------------------

           IN:                                      IN:
           ---                                      ---
             STORAGE =           0.0000               STORAGE =           0.0000
       CONSTANT HEAD =           0.0000         CONSTANT HEAD =           0.0000
               WELLS =           0.0000                 WELLS =           0.0000
     HEAD DEP BOUNDS =      105314.3359       HEAD DEP BOUNDS =         749.5200

            TOTAL IN =      105314.3359              TOTAL IN =         749.5200

          OUT:                                     OUT:
          ----                                     ----
             STORAGE =       15001.0791               STORAGE =           0.0000
       CONSTANT HEAD =           0.0000         CONSTANT HEAD =           0.0000
               WELLS =           0.0000                 WELLS =           0.0000
     HEAD DEP BOUNDS =       90318.9922       HEAD DEP BOUNDS =         749.5873

           TOTAL OUT =      105320.0703             TOTAL OUT =         749.5873

            IN - OUT =          -5.7344              IN - OUT =      -6.7383E-02

 PERCENT DISCREPANCY =          -0.01     PERCENT DISCREPANCY =          -0.01






         TIME SUMMARY AT END OF TIME STEP   25 IN STRESS PERIOD    3
                    SECONDS     MINUTES      HOURS       DAYS        YEARS
                    -----------------------------------------------------------
   TIME STEP LENGTH  86400.      1440.0      24.000      1.0000     2.73785E-03
 STRESS PERIOD TIME 2.16000E+06  36000.      600.00      25.000     6.84463E-02
         TOTAL TIME 1.08864E+07 1.81440E+05  3024.0      126.00     0.34497    
1
 
 SOLVING FOR HEAD 

 OUTPUT CONTROL FOR STRESS PERIOD    3   TIME STEP   26
    SAVE HEAD FOR ALL LAYERS
    SAVE DRAWDOWN FOR ALL LAYERS
    SAVE BUDGET
    PRINT HEAD FOR ALL LAYERS
    PRINT BUDGET
 UBDSV1 SAVING "         STORAGE" ON UNIT  53 AT TIME STEP 26, STRESS PERIOD   3
 UBDSV2 SAVING "   CONSTANT HEAD" ON UNIT  53 AT TIME STEP 26, STRESS PERIOD   3
 UBDSV1 SAVING "FLOW RIGHT FACE " ON UNIT  53 AT TIME STEP 26, STRESS PERIOD   3
 UBDSV1 SAVING "FLOW FRONT FACE " ON UNIT  53 AT TIME STEP 26, STRESS PERIOD   3
 UBDSV1 SAVING "FLOW LOWER FACE " ON UNIT  53 AT TIME STEP 26, STRESS PERIOD   3
1
              HEAD IN LAYER   1 AT END OF TIME STEP  26 IN STRESS PERIOD    3
  ---------------------------------------------------------------------------

            1           2           3           4           5
 ............................................................
   1    9.998       7.499       5.000       2.502      2.9983E-03
   2    9.998       7.499       5.000       2.502      2.9983E-03
   3    9.998       7.499       5.000       2.502      2.9983E-03
   4    9.998       7.499       5.000       2.502      2.9983E-03
   5    9.998       7.499       5.000       2.502      2.9983E-03
1
              HEAD IN LAYER   2 AT END OF TIME STEP  26 IN STRESS PERIOD    3
  ---------------------------------------------------------------------------

            1           2           3           4           5
 ............................................................
   1    9.998       7.499       5.000       2.502      2.9983E-03
   2    9.998       7.499       5.000       2.502      2.9983E-03
   3    9.998       7.499       5.000       2.502      2.9983E-03
   4    9.998       7.499       5.000       2.502      2.9983E-03
   5    9.998       7.499       5.000       2.502      2.9983E-03
1
              HEAD IN LAYER   3 AT END OF TIME STEP  26 IN STRESS PERIOD    3
  ---------------------------------------------------------------------------

            1           2           3           4           5
 ............................................................
   1    9.998       7.499       5.000       2.502      2.9983E-03
   2    9.998       7.499       5.000       2.502      2.9983E-03
   3    9.998       7.499       5.000       2.502      2.9983E-03
   4    9.998       7.499       5.000       2.502      2.9983E-03
   5    9.998       7.499       5.000       2.502      2.9983E-03
1
              HEAD IN LAYER   4 AT END OF TIME STEP  26 IN STRESS PERIOD    3
  ---------------------------------------------------------------------------

            1           2           3           4           5
 ............................................................
   1    9.998       7.499       5.000       2.502      2.9983E-03
   2    9.998       7.499       5.000       2.502      2.9983E-03
   3    9.998       7.499       5.000       2.502      2.9983E-03
   4    9.998       7.499       5.000       2.502      2.9983E-03
   5    9.998       7.499       5.000       2.502      2.9983E-03
1
              HEAD IN LAYER   5 AT END OF TIME STEP  26 IN STRESS PERIOD    3
  ---------------------------------------------------------------------------

            1           2           3           4           5
 ............................................................
   1    9.998       7.499       5.000       2.502      2.9983E-03
   2    9.998       7.499       5.000       2.502      2.9983E-03
   3    9.998       7.499       5.000       2.502      2.9983E-03
   4    9.998       7.499       5.000       2.502      2.9983E-03
   5    9.998       7.499       5.000       2.502      2.9983E-03

 HEAD WILL BE SAVED ON UNIT   51 AT END OF TIME STEP   26, STRESS PERIOD    3

 DRAWDOWN WILL BE SAVED ON UNIT   52 AT END OF TIME STEP   26, STRESS PERIOD    3
1
  VOLUMETRIC BUDGET FOR ENTIRE MODEL AT END OF TIME STEP   26, STRESS PERIOD   3
  ------------------------------------------------------------------------------

     CUMULATIVE VOLUMES      L**3       RATES FOR THIS TIME STEP      L**3/T
     ------------------                 ------------------------

           IN:                                      IN:
           ---                                      ---
             STORAGE =           0.0000               STORAGE =           0.0000
       CONSTANT HEAD =           0.0000         CONSTANT HEAD =           0.0000
               WELLS =           0.0000                 WELLS =           0.0000
     HEAD DEP BOUNDS =      106063.8594       HEAD DEP BOUNDS =         749.5200

            TOTAL IN =      106063.8594              TOTAL IN =         749.5200

          OUT:                                     OUT:
          ----                                     ----
             STORAGE =       15001.0791               STORAGE =           0.0000
       CONSTANT HEAD =           0.0000         CONSTANT HEAD =           0.0000
               WELLS =           0.0000                 WELLS =           0.0000
     HEAD DEP BOUNDS =       91068.5781       HEAD DEP BOUNDS =         749.5873

           TOTAL OUT =      106069.6562             TOTAL OUT =         749.5873

            IN - OUT =          -5.7969              IN - OUT =      -6.7383E-02

 PERCENT DISCREPANCY =          -0.01     PERCENT DISCREPANCY =          -0.01






         TIME SUMMARY AT END OF TIME STEP   26 IN STRESS PERIOD    3
                    SECONDS     MINUTES      HOURS       DAYS        YEARS
                    -----------------------------------------------------------
   TIME STEP LENGTH  86400.      1440.0      24.000      1.0000     2.73785E-03
 STRESS PERIOD TIME 2.24640E+06  37440.      624.00      26.000     7.11841E-02
         TOTAL TIME 1.09728E+07 1.82880E+05  3048.0      127.00     0.34771    
1
 
 SOLVING FOR HEAD 

 OUTPUT CONTROL FOR STRESS PERIOD    3   TIME STEP   27
    SAVE HEAD FOR ALL LAYERS
    SAVE DRAWDOWN FOR ALL LAYERS
    SAVE BUDGET
    PRINT HEAD FOR ALL LAYERS
    PRINT BUDGET
 UBDSV1 SAVING "         STORAGE" ON UNIT  53 AT TIME STEP 27, STRESS PERIOD   3
 UBDSV2 SAVING "   CONSTANT HEAD" ON UNIT  53 AT TIME STEP 27, STRESS PERIOD   3
 UBDSV1 SAVING "FLOW RIGHT FACE " ON UNIT  53 AT TIME STEP 27, STRESS PERIOD   3
 UBDSV1 SAVING "FLOW FRONT FACE " ON UNIT  53 AT TIME STEP 27, STRESS PERIOD   3
 UBDSV1 SAVING "FLOW LOWER FACE " ON UNIT  53 AT TIME STEP 27, STRESS PERIOD   3
1
              HEAD IN LAYER   1 AT END OF TIME STEP  27 IN STRESS PERIOD    3
  ---------------------------------------------------------------------------

            1           2           3           4           5
 ............................................................
   1    9.998       7.499       5.000       2.502      2.9983E-03
   2    9.998       7.499       5.000       2.502      2.9983E-03
   3    9.998       7.499       5.000       2.502      2.9983E-03
   4    9.998       7.499       5.000       2.502      2.9983E-03
   5    9.998       7.499       5.000       2.502      2.9983E-03
1
              HEAD IN LAYER   2 AT END OF TIME STEP  27 IN STRESS PERIOD    3
  ---------------------------------------------------------------------------

            1           2           3           4           5
 ............................................................
   1    9.998       7.499       5.000       2.502      2.9983E-03
   2    9.998       7.499       5.000       2.502      2.9983E-03
   3    9.998       7.499       5.000       2.502      2.9983E-03
   4    9.998       7.499       5.000       2.502      2.9983E-03
   5    9.998       7.499       5.000       2.502      2.9983E-03
1
              HEAD IN LAYER   3 AT END OF TIME STEP  27 IN STRESS PERIOD    3
  ---------------------------------------------------------------------------

            1           2           3           4           5
 ............................................................
   1    9.998       7.499       5.000       2.502      2.9983E-03
   2    9.998       7.499       5.000       2.502      2.9983E-03
   3    9.998       7.499       5.000       2.502      2.9983E-03
   4    9.998       7.499       5.000       2.502      2.9983E-03
   5    9.998       7.499       5.000       2.502      2.9983E-03
1
              HEAD IN LAYER   4 AT END OF TIME STEP  27 IN STRESS PERIOD    3
  ---------------------------------------------------------------------------

            1           2           3           4           5
 ............................................................
   1    9.998       7.499       5.000       2.502      2.9983E-03
   2    9.998       7.499       5.000       2.502      2.9983E-03
   3    9.998       7.499       5.000       2.502      2.9983E-03
   4    9.998       7.499       5.000       2.502      2.9983E-03
   5    9.998       7.499       5.000       2.502      2.9983E-03
1
              HEAD IN LAYER   5 AT END OF TIME STEP  27 IN STRESS PERIOD    3
  ---------------------------------------------------------------------------

            1           2           3           4           5
 ............................................................
   1    9.998       7.499       5.000       2.502      2.9983E-03
   2    9.998       7.499       5.000       2.502      2.9983E-03
   3    9.998       7.499       5.000       2.502      2.9983E-03
   4    9.998       7.499       5.000       2.502      2.9983E-03
   5    9.998       7.499       5.000       2.502      2.9983E-03

 HEAD WILL BE SAVED ON UNIT   51 AT END OF TIME STEP   27, STRESS PERIOD    3

 DRAWDOWN WILL BE SAVED ON UNIT   52 AT END OF TIME STEP   27, STRESS PERIOD    3
1
  VOLUMETRIC BUDGET FOR ENTIRE MODEL AT END OF TIME STEP   27, STRESS PERIOD   3
  ------------------------------------------------------------------------------

     CUMULATIVE VOLUMES      L**3       RATES FOR THIS TIME STEP      L**3/T
     ------------------                 ------------------------

           IN:                                      IN:
           ---                                      ---
             STORAGE =           0.0000               STORAGE =           0.0000
       CONSTANT HEAD =           0.0000         CONSTANT HEAD =           0.0000
               WELLS =           0.0000                 WELLS =           0.0000
     HEAD DEP BOUNDS =      106813.3828       HEAD DEP BOUNDS =         749.5200

            TOTAL IN =      106813.3828              TOTAL IN =         749.5200

          OUT:                                     OUT:
          ----                                     ----
             STORAGE =       15001.0791               STORAGE =           0.0000
       CONSTANT HEAD =           0.0000         CONSTANT HEAD =           0.0000
               WELLS =           0.0000                 WELLS =           0.0000
     HEAD DEP BOUNDS =       91818.1641       HEAD DEP BOUNDS =         749.5873

           TOTAL OUT =      106819.2422             TOTAL OUT =         749.5873

            IN - OUT =          -5.8594              IN - OUT =      -6.7383E-02

 PERCENT DISCREPANCY =          -0.01     PERCENT DISCREPANCY =          -0.01






         TIME SUMMARY AT END OF TIME STEP   27 IN STRESS PERIOD    3
                    SECONDS     MINUTES      HOURS       DAYS        YEARS
                    -----------------------------------------------------------
   TIME STEP LENGTH  86400.      1440.0      24.000      1.0000     2.73785E-03
 STRESS PERIOD TIME 2.33280E+06  38880.      648.00      27.000     7.39220E-02
         TOTAL TIME 1.10592E+07 1.84320E+05  3072.0      128.00     0.35044    
1
 
 SOLVING FOR HEAD 

 OUTPUT CONTROL FOR STRESS PERIOD    3   TIME STEP   28
    SAVE HEAD FOR ALL LAYERS
    SAVE DRAWDOWN FOR ALL LAYERS
    SAVE BUDGET
    PRINT HEAD FOR ALL LAYERS
    PRINT BUDGET
 UBDSV1 SAVING "         STORAGE" ON UNIT  53 AT TIME STEP 28, STRESS PERIOD   3
 UBDSV2 SAVING "   CONSTANT HEAD" ON UNIT  53 AT TIME STEP 28, STRESS PERIOD   3
 UBDSV1 SAVING "FLOW RIGHT FACE " ON UNIT  53 AT TIME STEP 28, STRESS PERIOD   3
 UBDSV1 SAVING "FLOW FRONT FACE " ON UNIT  53 AT TIME STEP 28, STRESS PERIOD   3
 UBDSV1 SAVING "FLOW LOWER FACE " ON UNIT  53 AT TIME STEP 28, STRESS PERIOD   3
1
              HEAD IN LAYER   1 AT END OF TIME STEP  28 IN STRESS PERIOD    3
  ---------------------------------------------------------------------------

            1           2           3           4           5
 ............................................................
   1    9.998       7.499       5.000       2.502      2.9983E-03
   2    9.998       7.499       5.000       2.502      2.9983E-03
   3    9.998       7.499       5.000       2.502      2.9983E-03
   4    9.998       7.499       5.000       2.502      2.9983E-03
   5    9.998       7.499       5.000       2.502      2.9983E-03
1
              HEAD IN LAYER   2 AT END OF TIME STEP  28 IN STRESS PERIOD    3
  ---------------------------------------------------------------------------

            1           2           3           4           5
 ............................................................
   1    9.998       7.499       5.000       2.502      2.9983E-03
   2    9.998       7.499       5.000       2.502      2.9983E-03
   3    9.998       7.499       5.000       2.502      2.9983E-03
   4    9.998       7.499       5.000       2.502      2.9983E-03
   5    9.998       7.499       5.000       2.502      2.9983E-03
1
              HEAD IN LAYER   3 AT END OF TIME STEP  28 IN STRESS PERIOD    3
  ---------------------------------------------------------------------------

            1           2           3           4           5
 ............................................................
   1    9.998       7.499       5.000       2.502      2.9983E-03
   2    9.998       7.499       5.000       2.502      2.9983E-03
   3    9.998       7.499       5.000       2.502      2.9983E-03
   4    9.998       7.499       5.000       2.502      2.9983E-03
   5    9.998       7.499       5.000       2.502      2.9983E-03
1
              HEAD IN LAYER   4 AT END OF TIME STEP  28 IN STRESS PERIOD    3
  ---------------------------------------------------------------------------

            1           2           3           4           5
 ............................................................
   1    9.998       7.499       5.000       2.502      2.9983E-03
   2    9.998       7.499       5.000       2.502      2.9983E-03
   3    9.998       7.499       5.000       2.502      2.9983E-03
   4    9.998       7.499       5.000       2.502      2.9983E-03
   5    9.998       7.499       5.000       2.502      2.9983E-03
1
              HEAD IN LAYER   5 AT END OF TIME STEP  28 IN STRESS PERIOD    3
  ---------------------------------------------------------------------------

            1           2           3           4           5
 ............................................................
   1    9.998       7.499       5.000       2.502      2.9983E-03
   2    9.998       7.499       5.000       2.502      2.9983E-03
   3    9.998       7.499       5.000       2.502      2.9983E-03
   4    9.998       7.499       5.000       2.502      2.9983E-03
   5    9.998       7.499       5.000       2.502      2.9983E-03

 HEAD WILL BE SAVED ON UNIT   51 AT END OF TIME STEP   28, STRESS PERIOD    3

 DRAWDOWN WILL BE SAVED ON UNIT   52 AT END OF TIME STEP   28, STRESS PERIOD    3
1
  VOLUMETRIC BUDGET FOR ENTIRE MODEL AT END OF TIME STEP   28, STRESS PERIOD   3
  ------------------------------------------------------------------------------

     CUMULATIVE VOLUMES      L**3       RATES FOR THIS TIME STEP      L**3/T
     ------------------                 ------------------------

           IN:                                      IN:
           ---                                      ---
             STORAGE =           0.0000               STORAGE =           0.0000
       CONSTANT HEAD =           0.0000         CONSTANT HEAD =           0.0000
               WELLS =           0.0000                 WELLS =           0.0000
     HEAD DEP BOUNDS =      107562.9062       HEAD DEP BOUNDS =         749.5200

            TOTAL IN =      107562.9062              TOTAL IN =         749.5200

          OUT:                                     OUT:
          ----                                     ----
             STORAGE =       15001.0791               STORAGE =           0.0000
       CONSTANT HEAD =           0.0000         CONSTANT HEAD =           0.0000
               WELLS =           0.0000                 WELLS =           0.0000
     HEAD DEP BOUNDS =       92567.7500       HEAD DEP BOUNDS =         749.5873

           TOTAL OUT =      107568.8281             TOTAL OUT =         749.5873

            IN - OUT =          -5.9219              IN - OUT =      -6.7383E-02

 PERCENT DISCREPANCY =          -0.01     PERCENT DISCREPANCY =          -0.01






         TIME SUMMARY AT END OF TIME STEP   28 IN STRESS PERIOD    3
                    SECONDS     MINUTES      HOURS       DAYS        YEARS
                    -----------------------------------------------------------
   TIME STEP LENGTH  86400.      1440.0      24.000      1.0000     2.73785E-03
 STRESS PERIOD TIME 2.41920E+06  40320.      672.00      28.000     7.66598E-02
         TOTAL TIME 1.11456E+07 1.85760E+05  3096.0      129.00     0.35318    
1
 
 SOLVING FOR HEAD 

 OUTPUT CONTROL FOR STRESS PERIOD    3   TIME STEP   29
    SAVE HEAD FOR ALL LAYERS
    SAVE DRAWDOWN FOR ALL LAYERS
    SAVE BUDGET
    PRINT HEAD FOR ALL LAYERS
    PRINT BUDGET
 UBDSV1 SAVING "         STORAGE" ON UNIT  53 AT TIME STEP 29, STRESS PERIOD   3
 UBDSV2 SAVING "   CONSTANT HEAD" ON UNIT  53 AT TIME STEP 29, STRESS PERIOD   3
 UBDSV1 SAVING "FLOW RIGHT FACE " ON UNIT  53 AT TIME STEP 29, STRESS PERIOD   3
 UBDSV1 SAVING "FLOW FRONT FACE " ON UNIT  53 AT TIME STEP 29, STRESS PERIOD   3
 UBDSV1 SAVING "FLOW LOWER FACE " ON UNIT  53 AT TIME STEP 29, STRESS PERIOD   3
1
              HEAD IN LAYER   1 AT END OF TIME STEP  29 IN STRESS PERIOD    3
  ---------------------------------------------------------------------------

            1           2           3           4           5
 ............................................................
   1    9.998       7.499       5.000       2.502      2.9983E-03
   2    9.998       7.499       5.000       2.502      2.9983E-03
   3    9.998       7.499       5.000       2.502      2.9983E-03
   4    9.998       7.499       5.000       2.502      2.9983E-03
   5    9.998       7.499       5.000       2.502      2.9983E-03
1
              HEAD IN LAYER   2 AT END OF TIME STEP  29 IN STRESS PERIOD    3
  ---------------------------------------------------------------------------

            1           2           3           4           5
 ............................................................
   1    9.998       7.499       5.000       2.502      2.9983E-03
   2    9.998       7.499       5.000       2.502      2.9983E-03
   3    9.998       7.499       5.000       2.502      2.9983E-03
   4    9.998       7.499       5.000       2.502      2.9983E-03
   5    9.998       7.499       5.000       2.502      2.9983E-03
1
              HEAD IN LAYER   3 AT END OF TIME STEP  29 IN STRESS PERIOD    3
  ---------------------------------------------------------------------------

            1           2           3           4           5
 ............................................................
   1    9.998       7.499       5.000       2.502      2.9983E-03
   2    9.998       7.499       5.000       2.502      2.9983E-03
   3    9.998       7.499       5.000       2.502      2.9983E-03
   4    9.998       7.499       5.000       2.502      2.9983E-03
   5    9.998       7.499       5.000       2.502      2.9983E-03
1
              HEAD IN LAYER   4 AT END OF TIME STEP  29 IN STRESS PERIOD    3
  ---------------------------------------------------------------------------

            1           2           3           4           5
 ............................................................
   1    9.998       7.499       5.000       2.502      2.9983E-03
   2    9.998       7.499       5.000       2.502      2.9983E-03
   3    9.998       7.499       5.000       2.502      2.9983E-03
   4    9.998       7.499       5.000       2.502      2.9983E-03
   5    9.998       7.499       5.000       2.502      2.9983E-03
1
              HEAD IN LAYER   5 AT END OF TIME STEP  29 IN STRESS PERIOD    3
  ---------------------------------------------------------------------------

            1           2           3           4           5
 ............................................................
   1    9.998       7.499       5.000       2.502      2.9983E-03
   2    9.998       7.499       5.000       2.502      2.9983E-03
   3    9.998       7.499       5.000       2.502      2.9983E-03
   4    9.998       7.499       5.000       2.502      2.9983E-03
   5    9.998       7.499       5.000       2.502      2.9983E-03

 HEAD WILL BE SAVED ON UNIT   51 AT END OF TIME STEP   29, STRESS PERIOD    3

 DRAWDOWN WILL BE SAVED ON UNIT   52 AT END OF TIME STEP   29, STRESS PERIOD    3
1
  VOLUMETRIC BUDGET FOR ENTIRE MODEL AT END OF TIME STEP   29, STRESS PERIOD   3
  ------------------------------------------------------------------------------

     CUMULATIVE VOLUMES      L**3       RATES FOR THIS TIME STEP      L**3/T
     ------------------                 ------------------------

           IN:                                      IN:
           ---                                      ---
             STORAGE =           0.0000               STORAGE =           0.0000
       CONSTANT HEAD =           0.0000         CONSTANT HEAD =           0.0000
               WELLS =           0.0000                 WELLS =           0.0000
     HEAD DEP BOUNDS =      108312.4297       HEAD DEP BOUNDS =         749.5200

            TOTAL IN =      108312.4297              TOTAL IN =         749.5200

          OUT:                                     OUT:
          ----                                     ----
             STORAGE =       15001.0791               STORAGE =           0.0000
       CONSTANT HEAD =           0.0000         CONSTANT HEAD =           0.0000
               WELLS =           0.0000                 WELLS =           0.0000
     HEAD DEP BOUNDS =       93317.3359       HEAD DEP BOUNDS =         749.5873

           TOTAL OUT =      108318.4141             TOTAL OUT =         749.5873

            IN - OUT =          -5.9844              IN - OUT =      -6.7383E-02

 PERCENT DISCREPANCY =          -0.01     PERCENT DISCREPANCY =          -0.01






         TIME SUMMARY AT END OF TIME STEP   29 IN STRESS PERIOD    3
                    SECONDS     MINUTES      HOURS       DAYS        YEARS
                    -----------------------------------------------------------
   TIME STEP LENGTH  86400.      1440.0      24.000      1.0000     2.73785E-03
 STRESS PERIOD TIME 2.50560E+06  41760.      696.00      29.000     7.93977E-02
         TOTAL TIME 1.12320E+07 1.87200E+05  3120.0      130.00     0.35592    
1
 
 SOLVING FOR HEAD 

 OUTPUT CONTROL FOR STRESS PERIOD    3   TIME STEP   30
    SAVE HEAD FOR ALL LAYERS
    SAVE DRAWDOWN FOR ALL LAYERS
    SAVE BUDGET
    PRINT HEAD FOR ALL LAYERS
    PRINT BUDGET
 UBDSV1 SAVING "         STORAGE" ON UNIT  53 AT TIME STEP 30, STRESS PERIOD   3
 UBDSV2 SAVING "   CONSTANT HEAD" ON UNIT  53 AT TIME STEP 30, STRESS PERIOD   3
 UBDSV1 SAVING "FLOW RIGHT FACE " ON UNIT  53 AT TIME STEP 30, STRESS PERIOD   3
 UBDSV1 SAVING "FLOW FRONT FACE " ON UNIT  53 AT TIME STEP 30, STRESS PERIOD   3
 UBDSV1 SAVING "FLOW LOWER FACE " ON UNIT  53 AT TIME STEP 30, STRESS PERIOD   3
1
              HEAD IN LAYER   1 AT END OF TIME STEP  30 IN STRESS PERIOD    3
  ---------------------------------------------------------------------------

            1           2           3           4           5
 ............................................................
   1    9.998       7.499       5.000       2.502      2.9983E-03
   2    9.998       7.499       5.000       2.502      2.9983E-03
   3    9.998       7.499       5.000       2.502      2.9983E-03
   4    9.998       7.499       5.000       2.502      2.9983E-03
   5    9.998       7.499       5.000       2.502      2.9983E-03
1
              HEAD IN LAYER   2 AT END OF TIME STEP  30 IN STRESS PERIOD    3
  ---------------------------------------------------------------------------

            1           2           3           4           5
 ............................................................
   1    9.998       7.499       5.000       2.502      2.9983E-03
   2    9.998       7.499       5.000       2.502      2.9983E-03
   3    9.998       7.499       5.000       2.502      2.9983E-03
   4    9.998       7.499       5.000       2.502      2.9983E-03
   5    9.998       7.499       5.000       2.502      2.9983E-03
1
              HEAD IN LAYER   3 AT END OF TIME STEP  30 IN STRESS PERIOD    3
  ---------------------------------------------------------------------------

            1           2           3           4           5
 ............................................................
   1    9.998       7.499       5.000       2.502      2.9983E-03
   2    9.998       7.499       5.000       2.502      2.9983E-03
   3    9.998       7.499       5.000       2.502      2.9983E-03
   4    9.998       7.499       5.000       2.502      2.9983E-03
   5    9.998       7.499       5.000       2.502      2.9983E-03
1
              HEAD IN LAYER   4 AT END OF TIME STEP  30 IN STRESS PERIOD    3
  ---------------------------------------------------------------------------

            1           2           3           4           5
 ............................................................
   1    9.998       7.499       5.000       2.502      2.9983E-03
   2    9.998       7.499       5.000       2.502      2.9983E-03
   3    9.998       7.499       5.000       2.502      2.9983E-03
   4    9.998       7.499       5.000       2.502      2.9983E-03
   5    9.998       7.499       5.000       2.502      2.9983E-03
1
              HEAD IN LAYER   5 AT END OF TIME STEP  30 IN STRESS PERIOD    3
  ---------------------------------------------------------------------------

            1           2           3           4           5
 ............................................................
   1    9.998       7.499       5.000       2.502      2.9983E-03
   2    9.998       7.499       5.000       2.502      2.9983E-03
   3    9.998       7.499       5.000       2.502      2.9983E-03
   4    9.998       7.499       5.000       2.502      2.9983E-03
   5    9.998       7.499       5.000       2.502      2.9983E-03

 HEAD WILL BE SAVED ON UNIT   51 AT END OF TIME STEP   30, STRESS PERIOD    3

 DRAWDOWN WILL BE SAVED ON UNIT   52 AT END OF TIME STEP   30, STRESS PERIOD    3
1
  VOLUMETRIC BUDGET FOR ENTIRE MODEL AT END OF TIME STEP   30, STRESS PERIOD   3
  ------------------------------------------------------------------------------

     CUMULATIVE VOLUMES      L**3       RATES FOR THIS TIME STEP      L**3/T
     ------------------                 ------------------------

           IN:                                      IN:
           ---                                      ---
             STORAGE =           0.0000               STORAGE =           0.0000
       CONSTANT HEAD =           0.0000         CONSTANT HEAD =           0.0000
               WELLS =           0.0000                 WELLS =           0.0000
     HEAD DEP BOUNDS =      109061.9531       HEAD DEP BOUNDS =         749.5200

            TOTAL IN =      109061.9531              TOTAL IN =         749.5200

          OUT:                                     OUT:
          ----                                     ----
             STORAGE =       15001.0791               STORAGE =           0.0000
       CONSTANT HEAD =           0.0000         CONSTANT HEAD =           0.0000
               WELLS =           0.0000                 WELLS =           0.0000
     HEAD DEP BOUNDS =       94066.9219       HEAD DEP BOUNDS =         749.5873

           TOTAL OUT =      109068.0000             TOTAL OUT =         749.5873

            IN - OUT =          -6.0469              IN - OUT =      -6.7383E-02

 PERCENT DISCREPANCY =          -0.01     PERCENT DISCREPANCY =          -0.01






         TIME SUMMARY AT END OF TIME STEP   30 IN STRESS PERIOD    3
                    SECONDS     MINUTES      HOURS       DAYS        YEARS
                    -----------------------------------------------------------
   TIME STEP LENGTH  86400.      1440.0      24.000      1.0000     2.73785E-03
 STRESS PERIOD TIME 2.59200E+06  43200.      720.00      30.000     8.21355E-02
         TOTAL TIME 1.13184E+07 1.88640E+05  3144.0      131.00     0.35866    
1
 
 SOLVING FOR HEAD 

 OUTPUT CONTROL FOR STRESS PERIOD    3   TIME STEP   31
    SAVE HEAD FOR ALL LAYERS
    SAVE DRAWDOWN FOR ALL LAYERS
    SAVE BUDGET
    PRINT HEAD FOR ALL LAYERS
    PRINT BUDGET
 UBDSV1 SAVING "         STORAGE" ON UNIT  53 AT TIME STEP 31, STRESS PERIOD   3
 UBDSV2 SAVING "   CONSTANT HEAD" ON UNIT  53 AT TIME STEP 31, STRESS PERIOD   3
 UBDSV1 SAVING "FLOW RIGHT FACE " ON UNIT  53 AT TIME STEP 31, STRESS PERIOD   3
 UBDSV1 SAVING "FLOW FRONT FACE " ON UNIT  53 AT TIME STEP 31, STRESS PERIOD   3
 UBDSV1 SAVING "FLOW LOWER FACE " ON UNIT  53 AT TIME STEP 31, STRESS PERIOD   3
1
              HEAD IN LAYER   1 AT END OF TIME STEP  31 IN STRESS PERIOD    3
  ---------------------------------------------------------------------------

            1           2           3           4           5
 ............................................................
   1    9.998       7.499       5.000       2.502      2.9983E-03
   2    9.998       7.499       5.000       2.502      2.9983E-03
   3    9.998       7.499       5.000       2.502      2.9983E-03
   4    9.998       7.499       5.000       2.502      2.9983E-03
   5    9.998       7.499       5.000       2.502      2.9983E-03
1
              HEAD IN LAYER   2 AT END OF TIME STEP  31 IN STRESS PERIOD    3
  ---------------------------------------------------------------------------

            1           2           3           4           5
 ............................................................
   1    9.998       7.499       5.000       2.502      2.9983E-03
   2    9.998       7.499       5.000       2.502      2.9983E-03
   3    9.998       7.499       5.000       2.502      2.9983E-03
   4    9.998       7.499       5.000       2.502      2.9983E-03
   5    9.998       7.499       5.000       2.502      2.9983E-03
1
              HEAD IN LAYER   3 AT END OF TIME STEP  31 IN STRESS PERIOD    3
  ---------------------------------------------------------------------------

            1           2           3           4           5
 ............................................................
   1    9.998       7.499       5.000       2.502      2.9983E-03
   2    9.998       7.499       5.000       2.502      2.9983E-03
   3    9.998       7.499       5.000       2.502      2.9983E-03
   4    9.998       7.499       5.000       2.502      2.9983E-03
   5    9.998       7.499       5.000       2.502      2.9983E-03
1
              HEAD IN LAYER   4 AT END OF TIME STEP  31 IN STRESS PERIOD    3
  ---------------------------------------------------------------------------

            1           2           3           4           5
 ............................................................
   1    9.998       7.499       5.000       2.502      2.9983E-03
   2    9.998       7.499       5.000       2.502      2.9983E-03
   3    9.998       7.499       5.000       2.502      2.9983E-03
   4    9.998       7.499       5.000       2.502      2.9983E-03
   5    9.998       7.499       5.000       2.502      2.9983E-03
1
              HEAD IN LAYER   5 AT END OF TIME STEP  31 IN STRESS PERIOD    3
  ---------------------------------------------------------------------------

            1           2           3           4           5
 ............................................................
   1    9.998       7.499       5.000       2.502      2.9983E-03
   2    9.998       7.499       5.000       2.502      2.9983E-03
   3    9.998       7.499       5.000       2.502      2.9983E-03
   4    9.998       7.499       5.000       2.502      2.9983E-03
   5    9.998       7.499       5.000       2.502      2.9983E-03

 HEAD WILL BE SAVED ON UNIT   51 AT END OF TIME STEP   31, STRESS PERIOD    3

 DRAWDOWN WILL BE SAVED ON UNIT   52 AT END OF TIME STEP   31, STRESS PERIOD    3
1
  VOLUMETRIC BUDGET FOR ENTIRE MODEL AT END OF TIME STEP   31, STRESS PERIOD   3
  ------------------------------------------------------------------------------

     CUMULATIVE VOLUMES      L**3       RATES FOR THIS TIME STEP      L**3/T
     ------------------                 ------------------------

           IN:                                      IN:
           ---                                      ---
             STORAGE =           0.0000               STORAGE =           0.0000
       CONSTANT HEAD =           0.0000         CONSTANT HEAD =           0.0000
               WELLS =           0.0000                 WELLS =           0.0000
     HEAD DEP BOUNDS =      109811.4766       HEAD DEP BOUNDS =         749.5200

            TOTAL IN =      109811.4766              TOTAL IN =         749.5200

          OUT:                                     OUT:
          ----                                     ----
             STORAGE =       15001.0791               STORAGE =           0.0000
       CONSTANT HEAD =           0.0000         CONSTANT HEAD =           0.0000
               WELLS =           0.0000                 WELLS =           0.0000
     HEAD DEP BOUNDS =       94816.5078       HEAD DEP BOUNDS =         749.5873

           TOTAL OUT =      109817.5859             TOTAL OUT =         749.5873

            IN - OUT =          -6.1094              IN - OUT =      -6.7383E-02

 PERCENT DISCREPANCY =          -0.01     PERCENT DISCREPANCY =          -0.01






         TIME SUMMARY AT END OF TIME STEP   31 IN STRESS PERIOD    3
                    SECONDS     MINUTES      HOURS       DAYS        YEARS
                    -----------------------------------------------------------
   TIME STEP LENGTH  86400.      1440.0      24.000      1.0000     2.73785E-03
 STRESS PERIOD TIME 2.67840E+06  44640.      744.00      31.000     8.48734E-02
         TOTAL TIME 1.14048E+07 1.90080E+05  3168.0      132.00     0.36140    
1
 
 SOLVING FOR HEAD 

 OUTPUT CONTROL FOR STRESS PERIOD    3   TIME STEP   32
    SAVE HEAD FOR ALL LAYERS
    SAVE DRAWDOWN FOR ALL LAYERS
    SAVE BUDGET
    PRINT HEAD FOR ALL LAYERS
    PRINT BUDGET
 UBDSV1 SAVING "         STORAGE" ON UNIT  53 AT TIME STEP 32, STRESS PERIOD   3
 UBDSV2 SAVING "   CONSTANT HEAD" ON UNIT  53 AT TIME STEP 32, STRESS PERIOD   3
 UBDSV1 SAVING "FLOW RIGHT FACE " ON UNIT  53 AT TIME STEP 32, STRESS PERIOD   3
 UBDSV1 SAVING "FLOW FRONT FACE " ON UNIT  53 AT TIME STEP 32, STRESS PERIOD   3
 UBDSV1 SAVING "FLOW LOWER FACE " ON UNIT  53 AT TIME STEP 32, STRESS PERIOD   3
1
              HEAD IN LAYER   1 AT END OF TIME STEP  32 IN STRESS PERIOD    3
  ---------------------------------------------------------------------------

            1           2           3           4           5
 ............................................................
   1    9.998       7.499       5.000       2.502      2.9983E-03
   2    9.998       7.499       5.000       2.502      2.9983E-03
   3    9.998       7.499       5.000       2.502      2.9983E-03
   4    9.998       7.499       5.000       2.502      2.9983E-03
   5    9.998       7.499       5.000       2.502      2.9983E-03
1
              HEAD IN LAYER   2 AT END OF TIME STEP  32 IN STRESS PERIOD    3
  ---------------------------------------------------------------------------

            1           2           3           4           5
 ............................................................
   1    9.998       7.499       5.000       2.502      2.9983E-03
   2    9.998       7.499       5.000       2.502      2.9983E-03
   3    9.998       7.499       5.000       2.502      2.9983E-03
   4    9.998       7.499       5.000       2.502      2.9983E-03
   5    9.998       7.499       5.000       2.502      2.9983E-03
1
              HEAD IN LAYER   3 AT END OF TIME STEP  32 IN STRESS PERIOD    3
  ---------------------------------------------------------------------------

            1           2           3           4           5
 ............................................................
   1    9.998       7.499       5.000       2.502      2.9983E-03
   2    9.998       7.499       5.000       2.502      2.9983E-03
   3    9.998       7.499       5.000       2.502      2.9983E-03
   4    9.998       7.499       5.000       2.502      2.9983E-03
   5    9.998       7.499       5.000       2.502      2.9983E-03
1
              HEAD IN LAYER   4 AT END OF TIME STEP  32 IN STRESS PERIOD    3
  ---------------------------------------------------------------------------

            1           2           3           4           5
 ............................................................
   1    9.998       7.499       5.000       2.502      2.9983E-03
   2    9.998       7.499       5.000       2.502      2.9983E-03
   3    9.998       7.499       5.000       2.502      2.9983E-03
   4    9.998       7.499       5.000       2.502      2.9983E-03
   5    9.998       7.499       5.000       2.502      2.9983E-03
1
              HEAD IN LAYER   5 AT END OF TIME STEP  32 IN STRESS PERIOD    3
  ---------------------------------------------------------------------------

            1           2           3           4           5
 ............................................................
   1    9.998       7.499       5.000       2.502      2.9983E-03
   2    9.998       7.499       5.000       2.502      2.9983E-03
   3    9.998       7.499       5.000       2.502      2.9983E-03
   4    9.998       7.499       5.000       2.502      2.9983E-03
   5    9.998       7.499       5.000       2.502      2.9983E-03

 HEAD WILL BE SAVED ON UNIT   51 AT END OF TIME STEP   32, STRESS PERIOD    3

 DRAWDOWN WILL BE SAVED ON UNIT   52 AT END OF TIME STEP   32, STRESS PERIOD    3
1
  VOLUMETRIC BUDGET FOR ENTIRE MODEL AT END OF TIME STEP   32, STRESS PERIOD   3
  ------------------------------------------------------------------------------

     CUMULATIVE VOLUMES      L**3       RATES FOR THIS TIME STEP      L**3/T
     ------------------                 ------------------------

           IN:                                      IN:
           ---                                      ---
             STORAGE =           0.0000               STORAGE =           0.0000
       CONSTANT HEAD =           0.0000         CONSTANT HEAD =           0.0000
               WELLS =           0.0000                 WELLS =           0.0000
     HEAD DEP BOUNDS =      110561.0000       HEAD DEP BOUNDS =         749.5200

            TOTAL IN =      110561.0000              TOTAL IN =         749.5200

          OUT:                                     OUT:
          ----                                     ----
             STORAGE =       15001.0791               STORAGE =           0.0000
       CONSTANT HEAD =           0.0000         CONSTANT HEAD =           0.0000
               WELLS =           0.0000                 WELLS =           0.0000
     HEAD DEP BOUNDS =       95566.0938       HEAD DEP BOUNDS =         749.5873

           TOTAL OUT =      110567.1719             TOTAL OUT =         749.5873

            IN - OUT =          -6.1719              IN - OUT =      -6.7383E-02

 PERCENT DISCREPANCY =          -0.01     PERCENT DISCREPANCY =          -0.01






         TIME SUMMARY AT END OF TIME STEP   32 IN STRESS PERIOD    3
                    SECONDS     MINUTES      HOURS       DAYS        YEARS
                    -----------------------------------------------------------
   TIME STEP LENGTH  86400.      1440.0      24.000      1.0000     2.73785E-03
 STRESS PERIOD TIME 2.76480E+06  46080.      768.00      32.000     8.76112E-02
         TOTAL TIME 1.14912E+07 1.91520E+05  3192.0      133.00     0.36413    
1
 
 SOLVING FOR HEAD 

 OUTPUT CONTROL FOR STRESS PERIOD    3   TIME STEP   33
    SAVE HEAD FOR ALL LAYERS
    SAVE DRAWDOWN FOR ALL LAYERS
    SAVE BUDGET
    PRINT HEAD FOR ALL LAYERS
    PRINT BUDGET
 UBDSV1 SAVING "         STORAGE" ON UNIT  53 AT TIME STEP 33, STRESS PERIOD   3
 UBDSV2 SAVING "   CONSTANT HEAD" ON UNIT  53 AT TIME STEP 33, STRESS PERIOD   3
 UBDSV1 SAVING "FLOW RIGHT FACE " ON UNIT  53 AT TIME STEP 33, STRESS PERIOD   3
 UBDSV1 SAVING "FLOW FRONT FACE " ON UNIT  53 AT TIME STEP 33, STRESS PERIOD   3
 UBDSV1 SAVING "FLOW LOWER FACE " ON UNIT  53 AT TIME STEP 33, STRESS PERIOD   3
1
              HEAD IN LAYER   1 AT END OF TIME STEP  33 IN STRESS PERIOD    3
  ---------------------------------------------------------------------------

            1           2           3           4           5
 ............................................................
   1    9.998       7.499       5.000       2.502      2.9983E-03
   2    9.998       7.499       5.000       2.502      2.9983E-03
   3    9.998       7.499       5.000       2.502      2.9983E-03
   4    9.998       7.499       5.000       2.502      2.9983E-03
   5    9.998       7.499       5.000       2.502      2.9983E-03
1
              HEAD IN LAYER   2 AT END OF TIME STEP  33 IN STRESS PERIOD    3
  ---------------------------------------------------------------------------

            1           2           3           4           5
 ............................................................
   1    9.998       7.499       5.000       2.502      2.9983E-03
   2    9.998       7.499       5.000       2.502      2.9983E-03
   3    9.998       7.499       5.000       2.502      2.9983E-03
   4    9.998       7.499       5.000       2.502      2.9983E-03
   5    9.998       7.499       5.000       2.502      2.9983E-03
1
              HEAD IN LAYER   3 AT END OF TIME STEP  33 IN STRESS PERIOD    3
  ---------------------------------------------------------------------------

            1           2           3           4           5
 ............................................................
   1    9.998       7.499       5.000       2.502      2.9983E-03
   2    9.998       7.499       5.000       2.502      2.9983E-03
   3    9.998       7.499       5.000       2.502      2.9983E-03
   4    9.998       7.499       5.000       2.502      2.9983E-03
   5    9.998       7.499       5.000       2.502      2.9983E-03
1
              HEAD IN LAYER   4 AT END OF TIME STEP  33 IN STRESS PERIOD    3
  ---------------------------------------------------------------------------

            1           2           3           4           5
 ............................................................
   1    9.998       7.499       5.000       2.502      2.9983E-03
   2    9.998       7.499       5.000       2.502      2.9983E-03
   3    9.998       7.499       5.000       2.502      2.9983E-03
   4    9.998       7.499       5.000       2.502      2.9983E-03
   5    9.998       7.499       5.000       2.502      2.9983E-03
1
              HEAD IN LAYER   5 AT END OF TIME STEP  33 IN STRESS PERIOD    3
  ---------------------------------------------------------------------------

            1           2           3           4           5
 ............................................................
   1    9.998       7.499       5.000       2.502      2.9983E-03
   2    9.998       7.499       5.000       2.502      2.9983E-03
   3    9.998       7.499       5.000       2.502      2.9983E-03
   4    9.998       7.499       5.000       2.502      2.9983E-03
   5    9.998       7.499       5.000       2.502      2.9983E-03

 HEAD WILL BE SAVED ON UNIT   51 AT END OF TIME STEP   33, STRESS PERIOD    3

 DRAWDOWN WILL BE SAVED ON UNIT   52 AT END OF TIME STEP   33, STRESS PERIOD    3
1
  VOLUMETRIC BUDGET FOR ENTIRE MODEL AT END OF TIME STEP   33, STRESS PERIOD   3
  ------------------------------------------------------------------------------

     CUMULATIVE VOLUMES      L**3       RATES FOR THIS TIME STEP      L**3/T
     ------------------                 ------------------------

           IN:                                      IN:
           ---                                      ---
             STORAGE =           0.0000               STORAGE =           0.0000
       CONSTANT HEAD =           0.0000         CONSTANT HEAD =           0.0000
               WELLS =           0.0000                 WELLS =           0.0000
     HEAD DEP BOUNDS =      111310.5234       HEAD DEP BOUNDS =         749.5200

            TOTAL IN =      111310.5234              TOTAL IN =         749.5200

          OUT:                                     OUT:
          ----                                     ----
             STORAGE =       15001.0791               STORAGE =           0.0000
       CONSTANT HEAD =           0.0000         CONSTANT HEAD =           0.0000
               WELLS =           0.0000                 WELLS =           0.0000
     HEAD DEP BOUNDS =       96315.6797       HEAD DEP BOUNDS =         749.5873

           TOTAL OUT =      111316.7578             TOTAL OUT =         749.5873

            IN - OUT =          -6.2344              IN - OUT =      -6.7383E-02

 PERCENT DISCREPANCY =          -0.01     PERCENT DISCREPANCY =          -0.01






         TIME SUMMARY AT END OF TIME STEP   33 IN STRESS PERIOD    3
                    SECONDS     MINUTES      HOURS       DAYS        YEARS
                    -----------------------------------------------------------
   TIME STEP LENGTH  86400.      1440.0      24.000      1.0000     2.73785E-03
 STRESS PERIOD TIME 2.85120E+06  47520.      792.00      33.000     9.03491E-02
         TOTAL TIME 1.15776E+07 1.92960E+05  3216.0      134.00     0.36687    
1
 
 SOLVING FOR HEAD 

 OUTPUT CONTROL FOR STRESS PERIOD    3   TIME STEP   34
    SAVE HEAD FOR ALL LAYERS
    SAVE DRAWDOWN FOR ALL LAYERS
    SAVE BUDGET
    PRINT HEAD FOR ALL LAYERS
    PRINT BUDGET
 UBDSV1 SAVING "         STORAGE" ON UNIT  53 AT TIME STEP 34, STRESS PERIOD   3
 UBDSV2 SAVING "   CONSTANT HEAD" ON UNIT  53 AT TIME STEP 34, STRESS PERIOD   3
 UBDSV1 SAVING "FLOW RIGHT FACE " ON UNIT  53 AT TIME STEP 34, STRESS PERIOD   3
 UBDSV1 SAVING "FLOW FRONT FACE " ON UNIT  53 AT TIME STEP 34, STRESS PERIOD   3
 UBDSV1 SAVING "FLOW LOWER FACE " ON UNIT  53 AT TIME STEP 34, STRESS PERIOD   3
1
              HEAD IN LAYER   1 AT END OF TIME STEP  34 IN STRESS PERIOD    3
  ---------------------------------------------------------------------------

            1           2           3           4           5
 ............................................................
   1    9.998       7.499       5.000       2.502      2.9983E-03
   2    9.998       7.499       5.000       2.502      2.9983E-03
   3    9.998       7.499       5.000       2.502      2.9983E-03
   4    9.998       7.499       5.000       2.502      2.9983E-03
   5    9.998       7.499       5.000       2.502      2.9983E-03
1
              HEAD IN LAYER   2 AT END OF TIME STEP  34 IN STRESS PERIOD    3
  ---------------------------------------------------------------------------

            1           2           3           4           5
 ............................................................
   1    9.998       7.499       5.000       2.502      2.9983E-03
   2    9.998       7.499       5.000       2.502      2.9983E-03
   3    9.998       7.499       5.000       2.502      2.9983E-03
   4    9.998       7.499       5.000       2.502      2.9983E-03
   5    9.998       7.499       5.000       2.502      2.9983E-03
1
              HEAD IN LAYER   3 AT END OF TIME STEP  34 IN STRESS PERIOD    3
  ---------------------------------------------------------------------------

            1           2           3           4           5
 ............................................................
   1    9.998       7.499       5.000       2.502      2.9983E-03
   2    9.998       7.499       5.000       2.502      2.9983E-03
   3    9.998       7.499       5.000       2.502      2.9983E-03
   4    9.998       7.499       5.000       2.502      2.9983E-03
   5    9.998       7.499       5.000       2.502      2.9983E-03
1
              HEAD IN LAYER   4 AT END OF TIME STEP  34 IN STRESS PERIOD    3
  ---------------------------------------------------------------------------

            1           2           3           4           5
 ............................................................
   1    9.998       7.499       5.000       2.502      2.9983E-03
   2    9.998       7.499       5.000       2.502      2.9983E-03
   3    9.998       7.499       5.000       2.502      2.9983E-03
   4    9.998       7.499       5.000       2.502      2.9983E-03
   5    9.998       7.499       5.000       2.502      2.9983E-03
1
              HEAD IN LAYER   5 AT END OF TIME STEP  34 IN STRESS PERIOD    3
  ---------------------------------------------------------------------------

            1           2           3           4           5
 ............................................................
   1    9.998       7.499       5.000       2.502      2.9983E-03
   2    9.998       7.499       5.000       2.502      2.9983E-03
   3    9.998       7.499       5.000       2.502      2.9983E-03
   4    9.998       7.499       5.000       2.502      2.9983E-03
   5    9.998       7.499       5.000       2.502      2.9983E-03

 HEAD WILL BE SAVED ON UNIT   51 AT END OF TIME STEP   34, STRESS PERIOD    3

 DRAWDOWN WILL BE SAVED ON UNIT   52 AT END OF TIME STEP   34, STRESS PERIOD    3
1
  VOLUMETRIC BUDGET FOR ENTIRE MODEL AT END OF TIME STEP   34, STRESS PERIOD   3
  ------------------------------------------------------------------------------

     CUMULATIVE VOLUMES      L**3       RATES FOR THIS TIME STEP      L**3/T
     ------------------                 ------------------------

           IN:                                      IN:
           ---                                      ---
             STORAGE =           0.0000               STORAGE =           0.0000
       CONSTANT HEAD =           0.0000         CONSTANT HEAD =           0.0000
               WELLS =           0.0000                 WELLS =           0.0000
     HEAD DEP BOUNDS =      112060.0469       HEAD DEP BOUNDS =         749.5200

            TOTAL IN =      112060.0469              TOTAL IN =         749.5200

          OUT:                                     OUT:
          ----                                     ----
             STORAGE =       15001.0791               STORAGE =           0.0000
       CONSTANT HEAD =           0.0000         CONSTANT HEAD =           0.0000
               WELLS =           0.0000                 WELLS =           0.0000
     HEAD DEP BOUNDS =       97065.2656       HEAD DEP BOUNDS =         749.5873

           TOTAL OUT =      112066.3438             TOTAL OUT =         749.5873

            IN - OUT =          -6.2969              IN - OUT =      -6.7383E-02

 PERCENT DISCREPANCY =          -0.01     PERCENT DISCREPANCY =          -0.01






         TIME SUMMARY AT END OF TIME STEP   34 IN STRESS PERIOD    3
                    SECONDS     MINUTES      HOURS       DAYS        YEARS
                    -----------------------------------------------------------
   TIME STEP LENGTH  86400.      1440.0      24.000      1.0000     2.73785E-03
 STRESS PERIOD TIME 2.93760E+06  48960.      816.00      34.000     9.30869E-02
         TOTAL TIME 1.16640E+07 1.94400E+05  3240.0      135.00     0.36961    
1
 
 SOLVING FOR HEAD 

 OUTPUT CONTROL FOR STRESS PERIOD    3   TIME STEP   35
    SAVE HEAD FOR ALL LAYERS
    SAVE DRAWDOWN FOR ALL LAYERS
    SAVE BUDGET
    PRINT HEAD FOR ALL LAYERS
    PRINT BUDGET
 UBDSV1 SAVING "         STORAGE" ON UNIT  53 AT TIME STEP 35, STRESS PERIOD   3
 UBDSV2 SAVING "   CONSTANT HEAD" ON UNIT  53 AT TIME STEP 35, STRESS PERIOD   3
 UBDSV1 SAVING "FLOW RIGHT FACE " ON UNIT  53 AT TIME STEP 35, STRESS PERIOD   3
 UBDSV1 SAVING "FLOW FRONT FACE " ON UNIT  53 AT TIME STEP 35, STRESS PERIOD   3
 UBDSV1 SAVING "FLOW LOWER FACE " ON UNIT  53 AT TIME STEP 35, STRESS PERIOD   3
1
              HEAD IN LAYER   1 AT END OF TIME STEP  35 IN STRESS PERIOD    3
  ---------------------------------------------------------------------------

            1           2           3           4           5
 ............................................................
   1    9.998       7.499       5.000       2.502      2.9983E-03
   2    9.998       7.499       5.000       2.502      2.9983E-03
   3    9.998       7.499       5.000       2.502      2.9983E-03
   4    9.998       7.499       5.000       2.502      2.9983E-03
   5    9.998       7.499       5.000       2.502      2.9983E-03
1
              HEAD IN LAYER   2 AT END OF TIME STEP  35 IN STRESS PERIOD    3
  ---------------------------------------------------------------------------

            1           2           3           4           5
 ............................................................
   1    9.998       7.499       5.000       2.502      2.9983E-03
   2    9.998       7.499       5.000       2.502      2.9983E-03
   3    9.998       7.499       5.000       2.502      2.9983E-03
   4    9.998       7.499       5.000       2.502      2.9983E-03
   5    9.998       7.499       5.000       2.502      2.9983E-03
1
              HEAD IN LAYER   3 AT END OF TIME STEP  35 IN STRESS PERIOD    3
  ---------------------------------------------------------------------------

            1           2           3           4           5
 ............................................................
   1    9.998       7.499       5.000       2.502      2.9983E-03
   2    9.998       7.499       5.000       2.502      2.9983E-03
   3    9.998       7.499       5.000       2.502      2.9983E-03
   4    9.998       7.499       5.000       2.502      2.9983E-03
   5    9.998       7.499       5.000       2.502      2.9983E-03
1
              HEAD IN LAYER   4 AT END OF TIME STEP  35 IN STRESS PERIOD    3
  ---------------------------------------------------------------------------

            1           2           3           4           5
 ............................................................
   1    9.998       7.499       5.000       2.502      2.9983E-03
   2    9.998       7.499       5.000       2.502      2.9983E-03
   3    9.998       7.499       5.000       2.502      2.9983E-03
   4    9.998       7.499       5.000       2.502      2.9983E-03
   5    9.998       7.499       5.000       2.502      2.9983E-03
1
              HEAD IN LAYER   5 AT END OF TIME STEP  35 IN STRESS PERIOD    3
  ---------------------------------------------------------------------------

            1           2           3           4           5
 ............................................................
   1    9.998       7.499       5.000       2.502      2.9983E-03
   2    9.998       7.499       5.000       2.502      2.9983E-03
   3    9.998       7.499       5.000       2.502      2.9983E-03
   4    9.998       7.499       5.000       2.502      2.9983E-03
   5    9.998       7.499       5.000       2.502      2.9983E-03

 HEAD WILL BE SAVED ON UNIT   51 AT END OF TIME STEP   35, STRESS PERIOD    3

 DRAWDOWN WILL BE SAVED ON UNIT   52 AT END OF TIME STEP   35, STRESS PERIOD    3
1
  VOLUMETRIC BUDGET FOR ENTIRE MODEL AT END OF TIME STEP   35, STRESS PERIOD   3
  ------------------------------------------------------------------------------

     CUMULATIVE VOLUMES      L**3       RATES FOR THIS TIME STEP      L**3/T
     ------------------                 ------------------------

           IN:                                      IN:
           ---                                      ---
             STORAGE =           0.0000               STORAGE =           0.0000
       CONSTANT HEAD =           0.0000         CONSTANT HEAD =           0.0000
               WELLS =           0.0000                 WELLS =           0.0000
     HEAD DEP BOUNDS =      112809.5703       HEAD DEP BOUNDS =         749.5200

            TOTAL IN =      112809.5703              TOTAL IN =         749.5200

          OUT:                                     OUT:
          ----                                     ----
             STORAGE =       15001.0791               STORAGE =           0.0000
       CONSTANT HEAD =           0.0000         CONSTANT HEAD =           0.0000
               WELLS =           0.0000                 WELLS =           0.0000
     HEAD DEP BOUNDS =       97814.8516       HEAD DEP BOUNDS =         749.5873

           TOTAL OUT =      112815.9297             TOTAL OUT =         749.5873

            IN - OUT =          -6.3594              IN - OUT =      -6.7383E-02

 PERCENT DISCREPANCY =          -0.01     PERCENT DISCREPANCY =          -0.01






         TIME SUMMARY AT END OF TIME STEP   35 IN STRESS PERIOD    3
                    SECONDS     MINUTES      HOURS       DAYS        YEARS
                    -----------------------------------------------------------
   TIME STEP LENGTH  86400.      1440.0      24.000      1.0000     2.73785E-03
 STRESS PERIOD TIME 3.02400E+06  50400.      840.00      35.000     9.58248E-02
         TOTAL TIME 1.17504E+07 1.95840E+05  3264.0      136.00     0.37235    
1
 
 SOLVING FOR HEAD 

 OUTPUT CONTROL FOR STRESS PERIOD    3   TIME STEP   36
    SAVE HEAD FOR ALL LAYERS
    SAVE DRAWDOWN FOR ALL LAYERS
    SAVE BUDGET
    PRINT HEAD FOR ALL LAYERS
    PRINT BUDGET
 UBDSV1 SAVING "         STORAGE" ON UNIT  53 AT TIME STEP 36, STRESS PERIOD   3
 UBDSV2 SAVING "   CONSTANT HEAD" ON UNIT  53 AT TIME STEP 36, STRESS PERIOD   3
 UBDSV1 SAVING "FLOW RIGHT FACE " ON UNIT  53 AT TIME STEP 36, STRESS PERIOD   3
 UBDSV1 SAVING "FLOW FRONT FACE " ON UNIT  53 AT TIME STEP 36, STRESS PERIOD   3
 UBDSV1 SAVING "FLOW LOWER FACE " ON UNIT  53 AT TIME STEP 36, STRESS PERIOD   3
1
              HEAD IN LAYER   1 AT END OF TIME STEP  36 IN STRESS PERIOD    3
  ---------------------------------------------------------------------------

            1           2           3           4           5
 ............................................................
   1    9.998       7.499       5.000       2.502      2.9983E-03
   2    9.998       7.499       5.000       2.502      2.9983E-03
   3    9.998       7.499       5.000       2.502      2.9983E-03
   4    9.998       7.499       5.000       2.502      2.9983E-03
   5    9.998       7.499       5.000       2.502      2.9983E-03
1
              HEAD IN LAYER   2 AT END OF TIME STEP  36 IN STRESS PERIOD    3
  ---------------------------------------------------------------------------

            1           2           3           4           5
 ............................................................
   1    9.998       7.499       5.000       2.502      2.9983E-03
   2    9.998       7.499       5.000       2.502      2.9983E-03
   3    9.998       7.499       5.000       2.502      2.9983E-03
   4    9.998       7.499       5.000       2.502      2.9983E-03
   5    9.998       7.499       5.000       2.502      2.9983E-03
1
              HEAD IN LAYER   3 AT END OF TIME STEP  36 IN STRESS PERIOD    3
  ---------------------------------------------------------------------------

            1           2           3           4           5
 ............................................................
   1    9.998       7.499       5.000       2.502      2.9983E-03
   2    9.998       7.499       5.000       2.502      2.9983E-03
   3    9.998       7.499       5.000       2.502      2.9983E-03
   4    9.998       7.499       5.000       2.502      2.9983E-03
   5    9.998       7.499       5.000       2.502      2.9983E-03
1
              HEAD IN LAYER   4 AT END OF TIME STEP  36 IN STRESS PERIOD    3
  ---------------------------------------------------------------------------

            1           2           3           4           5
 ............................................................
   1    9.998       7.499       5.000       2.502      2.9983E-03
   2    9.998       7.499       5.000       2.502      2.9983E-03
   3    9.998       7.499       5.000       2.502      2.9983E-03
   4    9.998       7.499       5.000       2.502      2.9983E-03
   5    9.998       7.499       5.000       2.502      2.9983E-03
1
              HEAD IN LAYER   5 AT END OF TIME STEP  36 IN STRESS PERIOD    3
  ---------------------------------------------------------------------------

            1           2           3           4           5
 ............................................................
   1    9.998       7.499       5.000       2.502      2.9983E-03
   2    9.998       7.499       5.000       2.502      2.9983E-03
   3    9.998       7.499       5.000       2.502      2.9983E-03
   4    9.998       7.499       5.000       2.502      2.9983E-03
   5    9.998       7.499       5.000       2.502      2.9983E-03

 HEAD WILL BE SAVED ON UNIT   51 AT END OF TIME STEP   36, STRESS PERIOD    3

 DRAWDOWN WILL BE SAVED ON UNIT   52 AT END OF TIME STEP   36, STRESS PERIOD    3
1
  VOLUMETRIC BUDGET FOR ENTIRE MODEL AT END OF TIME STEP   36, STRESS PERIOD   3
  ------------------------------------------------------------------------------

     CUMULATIVE VOLUMES      L**3       RATES FOR THIS TIME STEP      L**3/T
     ------------------                 ------------------------

           IN:                                      IN:
           ---                                      ---
             STORAGE =           0.0000               STORAGE =           0.0000
       CONSTANT HEAD =           0.0000         CONSTANT HEAD =           0.0000
               WELLS =           0.0000                 WELLS =           0.0000
     HEAD DEP BOUNDS =      113559.0938       HEAD DEP BOUNDS =         749.5200

            TOTAL IN =      113559.0938              TOTAL IN =         749.5200

          OUT:                                     OUT:
          ----                                     ----
             STORAGE =       15001.0791               STORAGE =           0.0000
       CONSTANT HEAD =           0.0000         CONSTANT HEAD =           0.0000
               WELLS =           0.0000                 WELLS =           0.0000
     HEAD DEP BOUNDS =       98564.4375       HEAD DEP BOUNDS =         749.5873

           TOTAL OUT =      113565.5156             TOTAL OUT =         749.5873

            IN - OUT =          -6.4219              IN - OUT =      -6.7383E-02

 PERCENT DISCREPANCY =          -0.01     PERCENT DISCREPANCY =          -0.01






         TIME SUMMARY AT END OF TIME STEP   36 IN STRESS PERIOD    3
                    SECONDS     MINUTES      HOURS       DAYS        YEARS
                    -----------------------------------------------------------
   TIME STEP LENGTH  86400.      1440.0      24.000      1.0000     2.73785E-03
 STRESS PERIOD TIME 3.11040E+06  51840.      864.00      36.000     9.85626E-02
         TOTAL TIME 1.18368E+07 1.97280E+05  3288.0      137.00     0.37509    
1
 
 SOLVING FOR HEAD 

 OUTPUT CONTROL FOR STRESS PERIOD    3   TIME STEP   37
    SAVE HEAD FOR ALL LAYERS
    SAVE DRAWDOWN FOR ALL LAYERS
    SAVE BUDGET
    PRINT HEAD FOR ALL LAYERS
    PRINT BUDGET
 UBDSV1 SAVING "         STORAGE" ON UNIT  53 AT TIME STEP 37, STRESS PERIOD   3
 UBDSV2 SAVING "   CONSTANT HEAD" ON UNIT  53 AT TIME STEP 37, STRESS PERIOD   3
 UBDSV1 SAVING "FLOW RIGHT FACE " ON UNIT  53 AT TIME STEP 37, STRESS PERIOD   3
 UBDSV1 SAVING "FLOW FRONT FACE " ON UNIT  53 AT TIME STEP 37, STRESS PERIOD   3
 UBDSV1 SAVING "FLOW LOWER FACE " ON UNIT  53 AT TIME STEP 37, STRESS PERIOD   3
1
              HEAD IN LAYER   1 AT END OF TIME STEP  37 IN STRESS PERIOD    3
  ---------------------------------------------------------------------------

            1           2           3           4           5
 ............................................................
   1    9.998       7.499       5.000       2.502      2.9983E-03
   2    9.998       7.499       5.000       2.502      2.9983E-03
   3    9.998       7.499       5.000       2.502      2.9983E-03
   4    9.998       7.499       5.000       2.502      2.9983E-03
   5    9.998       7.499       5.000       2.502      2.9983E-03
1
              HEAD IN LAYER   2 AT END OF TIME STEP  37 IN STRESS PERIOD    3
  ---------------------------------------------------------------------------

            1           2           3           4           5
 ............................................................
   1    9.998       7.499       5.000       2.502      2.9983E-03
   2    9.998       7.499       5.000       2.502      2.9983E-03
   3    9.998       7.499       5.000       2.502      2.9983E-03
   4    9.998       7.499       5.000       2.502      2.9983E-03
   5    9.998       7.499       5.000       2.502      2.9983E-03
1
              HEAD IN LAYER   3 AT END OF TIME STEP  37 IN STRESS PERIOD    3
  ---------------------------------------------------------------------------

            1           2           3           4           5
 ............................................................
   1    9.998       7.499       5.000       2.502      2.9983E-03
   2    9.998       7.499       5.000       2.502      2.9983E-03
   3    9.998       7.499       5.000       2.502      2.9983E-03
   4    9.998       7.499       5.000       2.502      2.9983E-03
   5    9.998       7.499       5.000       2.502      2.9983E-03
1
              HEAD IN LAYER   4 AT END OF TIME STEP  37 IN STRESS PERIOD    3
  ---------------------------------------------------------------------------

            1           2           3           4           5
 ............................................................
   1    9.998       7.499       5.000       2.502      2.9983E-03
   2    9.998       7.499       5.000       2.502      2.9983E-03
   3    9.998       7.499       5.000       2.502      2.9983E-03
   4    9.998       7.499       5.000       2.502      2.9983E-03
   5    9.998       7.499       5.000       2.502      2.9983E-03
1
              HEAD IN LAYER   5 AT END OF TIME STEP  37 IN STRESS PERIOD    3
  ---------------------------------------------------------------------------

            1           2           3           4           5
 ............................................................
   1    9.998       7.499       5.000       2.502      2.9983E-03
   2    9.998       7.499       5.000       2.502      2.9983E-03
   3    9.998       7.499       5.000       2.502      2.9983E-03
   4    9.998       7.499       5.000       2.502      2.9983E-03
   5    9.998       7.499       5.000       2.502      2.9983E-03

 HEAD WILL BE SAVED ON UNIT   51 AT END OF TIME STEP   37, STRESS PERIOD    3

 DRAWDOWN WILL BE SAVED ON UNIT   52 AT END OF TIME STEP   37, STRESS PERIOD    3
1
  VOLUMETRIC BUDGET FOR ENTIRE MODEL AT END OF TIME STEP   37, STRESS PERIOD   3
  ------------------------------------------------------------------------------

     CUMULATIVE VOLUMES      L**3       RATES FOR THIS TIME STEP      L**3/T
     ------------------                 ------------------------

           IN:                                      IN:
           ---                                      ---
             STORAGE =           0.0000               STORAGE =           0.0000
       CONSTANT HEAD =           0.0000         CONSTANT HEAD =           0.0000
               WELLS =           0.0000                 WELLS =           0.0000
     HEAD DEP BOUNDS =      114308.6172       HEAD DEP BOUNDS =         749.5200

            TOTAL IN =      114308.6172              TOTAL IN =         749.5200

          OUT:                                     OUT:
          ----                                     ----
             STORAGE =       15001.0791               STORAGE =           0.0000
       CONSTANT HEAD =           0.0000         CONSTANT HEAD =           0.0000
               WELLS =           0.0000                 WELLS =           0.0000
     HEAD DEP BOUNDS =       99314.0234       HEAD DEP BOUNDS =         749.5873

           TOTAL OUT =      114315.1016             TOTAL OUT =         749.5873

            IN - OUT =          -6.4844              IN - OUT =      -6.7383E-02

 PERCENT DISCREPANCY =          -0.01     PERCENT DISCREPANCY =          -0.01






         TIME SUMMARY AT END OF TIME STEP   37 IN STRESS PERIOD    3
                    SECONDS     MINUTES      HOURS       DAYS        YEARS
                    -----------------------------------------------------------
   TIME STEP LENGTH  86400.      1440.0      24.000      1.0000     2.73785E-03
 STRESS PERIOD TIME 3.19680E+06  53280.      888.00      37.000     0.10130    
         TOTAL TIME 1.19232E+07 1.98720E+05  3312.0      138.00     0.37782    
1
 
 SOLVING FOR HEAD 

 OUTPUT CONTROL FOR STRESS PERIOD    3   TIME STEP   38
    SAVE HEAD FOR ALL LAYERS
    SAVE DRAWDOWN FOR ALL LAYERS
    SAVE BUDGET
    PRINT HEAD FOR ALL LAYERS
    PRINT BUDGET
 UBDSV1 SAVING "         STORAGE" ON UNIT  53 AT TIME STEP 38, STRESS PERIOD   3
 UBDSV2 SAVING "   CONSTANT HEAD" ON UNIT  53 AT TIME STEP 38, STRESS PERIOD   3
 UBDSV1 SAVING "FLOW RIGHT FACE " ON UNIT  53 AT TIME STEP 38, STRESS PERIOD   3
 UBDSV1 SAVING "FLOW FRONT FACE " ON UNIT  53 AT TIME STEP 38, STRESS PERIOD   3
 UBDSV1 SAVING "FLOW LOWER FACE " ON UNIT  53 AT TIME STEP 38, STRESS PERIOD   3
1
              HEAD IN LAYER   1 AT END OF TIME STEP  38 IN STRESS PERIOD    3
  ---------------------------------------------------------------------------

            1           2           3           4           5
 ............................................................
   1    9.998       7.499       5.000       2.502      2.9983E-03
   2    9.998       7.499       5.000       2.502      2.9983E-03
   3    9.998       7.499       5.000       2.502      2.9983E-03
   4    9.998       7.499       5.000       2.502      2.9983E-03
   5    9.998       7.499       5.000       2.502      2.9983E-03
1
              HEAD IN LAYER   2 AT END OF TIME STEP  38 IN STRESS PERIOD    3
  ---------------------------------------------------------------------------

            1           2           3           4           5
 ............................................................
   1    9.998       7.499       5.000       2.502      2.9983E-03
   2    9.998       7.499       5.000       2.502      2.9983E-03
   3    9.998       7.499       5.000       2.502      2.9983E-03
   4    9.998       7.499       5.000       2.502      2.9983E-03
   5    9.998       7.499       5.000       2.502      2.9983E-03
1
              HEAD IN LAYER   3 AT END OF TIME STEP  38 IN STRESS PERIOD    3
  ---------------------------------------------------------------------------

            1           2           3           4           5
 ............................................................
   1    9.998       7.499       5.000       2.502      2.9983E-03
   2    9.998       7.499       5.000       2.502      2.9983E-03
   3    9.998       7.499       5.000       2.502      2.9983E-03
   4    9.998       7.499       5.000       2.502      2.9983E-03
   5    9.998       7.499       5.000       2.502      2.9983E-03
1
              HEAD IN LAYER   4 AT END OF TIME STEP  38 IN STRESS PERIOD    3
  ---------------------------------------------------------------------------

            1           2           3           4           5
 ............................................................
   1    9.998       7.499       5.000       2.502      2.9983E-03
   2    9.998       7.499       5.000       2.502      2.9983E-03
   3    9.998       7.499       5.000       2.502      2.9983E-03
   4    9.998       7.499       5.000       2.502      2.9983E-03
   5    9.998       7.499       5.000       2.502      2.9983E-03
1
              HEAD IN LAYER   5 AT END OF TIME STEP  38 IN STRESS PERIOD    3
  ---------------------------------------------------------------------------

            1           2           3           4           5
 ............................................................
   1    9.998       7.499       5.000       2.502      2.9983E-03
   2    9.998       7.499       5.000       2.502      2.9983E-03
   3    9.998       7.499       5.000       2.502      2.9983E-03
   4    9.998       7.499       5.000       2.502      2.9983E-03
   5    9.998       7.499       5.000       2.502      2.9983E-03

 HEAD WILL BE SAVED ON UNIT   51 AT END OF TIME STEP   38, STRESS PERIOD    3

 DRAWDOWN WILL BE SAVED ON UNIT   52 AT END OF TIME STEP   38, STRESS PERIOD    3
1
  VOLUMETRIC BUDGET FOR ENTIRE MODEL AT END OF TIME STEP   38, STRESS PERIOD   3
  ------------------------------------------------------------------------------

     CUMULATIVE VOLUMES      L**3       RATES FOR THIS TIME STEP      L**3/T
     ------------------                 ------------------------

           IN:                                      IN:
           ---                                      ---
             STORAGE =           0.0000               STORAGE =           0.0000
       CONSTANT HEAD =           0.0000         CONSTANT HEAD =           0.0000
               WELLS =           0.0000                 WELLS =           0.0000
     HEAD DEP BOUNDS =      115058.1406       HEAD DEP BOUNDS =         749.5200

            TOTAL IN =      115058.1406              TOTAL IN =         749.5200

          OUT:                                     OUT:
          ----                                     ----
             STORAGE =       15001.0791               STORAGE =           0.0000
       CONSTANT HEAD =           0.0000         CONSTANT HEAD =           0.0000
               WELLS =           0.0000                 WELLS =           0.0000
     HEAD DEP BOUNDS =      100063.6094       HEAD DEP BOUNDS =         749.5873

           TOTAL OUT =      115064.6875             TOTAL OUT =         749.5873

            IN - OUT =          -6.5469              IN - OUT =      -6.7383E-02

 PERCENT DISCREPANCY =          -0.01     PERCENT DISCREPANCY =          -0.01






         TIME SUMMARY AT END OF TIME STEP   38 IN STRESS PERIOD    3
                    SECONDS     MINUTES      HOURS       DAYS        YEARS
                    -----------------------------------------------------------
   TIME STEP LENGTH  86400.      1440.0      24.000      1.0000     2.73785E-03
 STRESS PERIOD TIME 3.28320E+06  54720.      912.00      38.000     0.10404    
         TOTAL TIME 1.20096E+07 2.00160E+05  3336.0      139.00     0.38056    
1
 
 SOLVING FOR HEAD 

 OUTPUT CONTROL FOR STRESS PERIOD    3   TIME STEP   39
    SAVE HEAD FOR ALL LAYERS
    SAVE DRAWDOWN FOR ALL LAYERS
    SAVE BUDGET
    PRINT HEAD FOR ALL LAYERS
    PRINT BUDGET
 UBDSV1 SAVING "         STORAGE" ON UNIT  53 AT TIME STEP 39, STRESS PERIOD   3
 UBDSV2 SAVING "   CONSTANT HEAD" ON UNIT  53 AT TIME STEP 39, STRESS PERIOD   3
 UBDSV1 SAVING "FLOW RIGHT FACE " ON UNIT  53 AT TIME STEP 39, STRESS PERIOD   3
 UBDSV1 SAVING "FLOW FRONT FACE " ON UNIT  53 AT TIME STEP 39, STRESS PERIOD   3
 UBDSV1 SAVING "FLOW LOWER FACE " ON UNIT  53 AT TIME STEP 39, STRESS PERIOD   3
1
              HEAD IN LAYER   1 AT END OF TIME STEP  39 IN STRESS PERIOD    3
  ---------------------------------------------------------------------------

            1           2           3           4           5
 ............................................................
   1    9.998       7.499       5.000       2.502      2.9983E-03
   2    9.998       7.499       5.000       2.502      2.9983E-03
   3    9.998       7.499       5.000       2.502      2.9983E-03
   4    9.998       7.499       5.000       2.502      2.9983E-03
   5    9.998       7.499       5.000       2.502      2.9983E-03
1
              HEAD IN LAYER   2 AT END OF TIME STEP  39 IN STRESS PERIOD    3
  ---------------------------------------------------------------------------

            1           2           3           4           5
 ............................................................
   1    9.998       7.499       5.000       2.502      2.9983E-03
   2    9.998       7.499       5.000       2.502      2.9983E-03
   3    9.998       7.499       5.000       2.502      2.9983E-03
   4    9.998       7.499       5.000       2.502      2.9983E-03
   5    9.998       7.499       5.000       2.502      2.9983E-03
1
              HEAD IN LAYER   3 AT END OF TIME STEP  39 IN STRESS PERIOD    3
  ---------------------------------------------------------------------------

            1           2           3           4           5
 ............................................................
   1    9.998       7.499       5.000       2.502      2.9983E-03
   2    9.998       7.499       5.000       2.502      2.9983E-03
   3    9.998       7.499       5.000       2.502      2.9983E-03
   4    9.998       7.499       5.000       2.502      2.9983E-03
   5    9.998       7.499       5.000       2.502      2.9983E-03
1
              HEAD IN LAYER   4 AT END OF TIME STEP  39 IN STRESS PERIOD    3
  ---------------------------------------------------------------------------

            1           2           3           4           5
 ............................................................
   1    9.998       7.499       5.000       2.502      2.9983E-03
   2    9.998       7.499       5.000       2.502      2.9983E-03
   3    9.998       7.499       5.000       2.502      2.9983E-03
   4    9.998       7.499       5.000       2.502      2.9983E-03
   5    9.998       7.499       5.000       2.502      2.9983E-03
1
              HEAD IN LAYER   5 AT END OF TIME STEP  39 IN STRESS PERIOD    3
  ---------------------------------------------------------------------------

            1           2           3           4           5
 ............................................................
   1    9.998       7.499       5.000       2.502      2.9983E-03
   2    9.998       7.499       5.000       2.502      2.9983E-03
   3    9.998       7.499       5.000       2.502      2.9983E-03
   4    9.998       7.499       5.000       2.502      2.9983E-03
   5    9.998       7.499       5.000       2.502      2.9983E-03

 HEAD WILL BE SAVED ON UNIT   51 AT END OF TIME STEP   39, STRESS PERIOD    3

 DRAWDOWN WILL BE SAVED ON UNIT   52 AT END OF TIME STEP   39, STRESS PERIOD    3
1
  VOLUMETRIC BUDGET FOR ENTIRE MODEL AT END OF TIME STEP   39, STRESS PERIOD   3
  ------------------------------------------------------------------------------

     CUMULATIVE VOLUMES      L**3       RATES FOR THIS TIME STEP      L**3/T
     ------------------                 ------------------------

           IN:                                      IN:
           ---                                      ---
             STORAGE =           0.0000               STORAGE =           0.0000
       CONSTANT HEAD =           0.0000         CONSTANT HEAD =           0.0000
               WELLS =           0.0000                 WELLS =           0.0000
     HEAD DEP BOUNDS =      115807.6641       HEAD DEP BOUNDS =         749.5200

            TOTAL IN =      115807.6641              TOTAL IN =         749.5200

          OUT:                                     OUT:
          ----                                     ----
             STORAGE =       15001.0791               STORAGE =           0.0000
       CONSTANT HEAD =           0.0000         CONSTANT HEAD =           0.0000
               WELLS =           0.0000                 WELLS =           0.0000
     HEAD DEP BOUNDS =      100813.1953       HEAD DEP BOUNDS =         749.5873

           TOTAL OUT =      115814.2734             TOTAL OUT =         749.5873

            IN - OUT =          -6.6094              IN - OUT =      -6.7383E-02

 PERCENT DISCREPANCY =          -0.01     PERCENT DISCREPANCY =          -0.01






         TIME SUMMARY AT END OF TIME STEP   39 IN STRESS PERIOD    3
                    SECONDS     MINUTES      HOURS       DAYS        YEARS
                    -----------------------------------------------------------
   TIME STEP LENGTH  86400.      1440.0      24.000      1.0000     2.73785E-03
 STRESS PERIOD TIME 3.36960E+06  56160.      936.00      39.000     0.10678    
         TOTAL TIME 1.20960E+07 2.01600E+05  3360.0      140.00     0.38330    
1
 
 SOLVING FOR HEAD 

 OUTPUT CONTROL FOR STRESS PERIOD    3   TIME STEP   40
    SAVE HEAD FOR ALL LAYERS
    SAVE DRAWDOWN FOR ALL LAYERS
    SAVE BUDGET
    PRINT HEAD FOR ALL LAYERS
    PRINT BUDGET
 UBDSV1 SAVING "         STORAGE" ON UNIT  53 AT TIME STEP 40, STRESS PERIOD   3
 UBDSV2 SAVING "   CONSTANT HEAD" ON UNIT  53 AT TIME STEP 40, STRESS PERIOD   3
 UBDSV1 SAVING "FLOW RIGHT FACE " ON UNIT  53 AT TIME STEP 40, STRESS PERIOD   3
 UBDSV1 SAVING "FLOW FRONT FACE " ON UNIT  53 AT TIME STEP 40, STRESS PERIOD   3
 UBDSV1 SAVING "FLOW LOWER FACE " ON UNIT  53 AT TIME STEP 40, STRESS PERIOD   3
1
              HEAD IN LAYER   1 AT END OF TIME STEP  40 IN STRESS PERIOD    3
  ---------------------------------------------------------------------------

            1           2           3           4           5
 ............................................................
   1    9.998       7.499       5.000       2.502      2.9983E-03
   2    9.998       7.499       5.000       2.502      2.9983E-03
   3    9.998       7.499       5.000       2.502      2.9983E-03
   4    9.998       7.499       5.000       2.502      2.9983E-03
   5    9.998       7.499       5.000       2.502      2.9983E-03
1
              HEAD IN LAYER   2 AT END OF TIME STEP  40 IN STRESS PERIOD    3
  ---------------------------------------------------------------------------

            1           2           3           4           5
 ............................................................
   1    9.998       7.499       5.000       2.502      2.9983E-03
   2    9.998       7.499       5.000       2.502      2.9983E-03
   3    9.998       7.499       5.000       2.502      2.9983E-03
   4    9.998       7.499       5.000       2.502      2.9983E-03
   5    9.998       7.499       5.000       2.502      2.9983E-03
1
              HEAD IN LAYER   3 AT END OF TIME STEP  40 IN STRESS PERIOD    3
  ---------------------------------------------------------------------------

            1           2           3           4           5
 ............................................................
   1    9.998       7.499       5.000       2.502      2.9983E-03
   2    9.998       7.499       5.000       2.502      2.9983E-03
   3    9.998       7.499       5.000       2.502      2.9983E-03
   4    9.998       7.499       5.000       2.502      2.9983E-03
   5    9.998       7.499       5.000       2.502      2.9983E-03
1
              HEAD IN LAYER   4 AT END OF TIME STEP  40 IN STRESS PERIOD    3
  ---------------------------------------------------------------------------

            1           2           3           4           5
 ............................................................
   1    9.998       7.499       5.000       2.502      2.9983E-03
   2    9.998       7.499       5.000       2.502      2.9983E-03
   3    9.998       7.499       5.000       2.502      2.9983E-03
   4    9.998       7.499       5.000       2.502      2.9983E-03
   5    9.998       7.499       5.000       2.502      2.9983E-03
1
              HEAD IN LAYER   5 AT END OF TIME STEP  40 IN STRESS PERIOD    3
  ---------------------------------------------------------------------------

            1           2           3           4           5
 ............................................................
   1    9.998       7.499       5.000       2.502      2.9983E-03
   2    9.998       7.499       5.000       2.502      2.9983E-03
   3    9.998       7.499       5.000       2.502      2.9983E-03
   4    9.998       7.499       5.000       2.502      2.9983E-03
   5    9.998       7.499       5.000       2.502      2.9983E-03

 HEAD WILL BE SAVED ON UNIT   51 AT END OF TIME STEP   40, STRESS PERIOD    3

 DRAWDOWN WILL BE SAVED ON UNIT   52 AT END OF TIME STEP   40, STRESS PERIOD    3
1
  VOLUMETRIC BUDGET FOR ENTIRE MODEL AT END OF TIME STEP   40, STRESS PERIOD   3
  ------------------------------------------------------------------------------

     CUMULATIVE VOLUMES      L**3       RATES FOR THIS TIME STEP      L**3/T
     ------------------                 ------------------------

           IN:                                      IN:
           ---                                      ---
             STORAGE =           0.0000               STORAGE =           0.0000
       CONSTANT HEAD =           0.0000         CONSTANT HEAD =           0.0000
               WELLS =           0.0000                 WELLS =           0.0000
     HEAD DEP BOUNDS =      116557.1875       HEAD DEP BOUNDS =         749.5200

            TOTAL IN =      116557.1875              TOTAL IN =         749.5200

          OUT:                                     OUT:
          ----                                     ----
             STORAGE =       15001.0791               STORAGE =           0.0000
       CONSTANT HEAD =           0.0000         CONSTANT HEAD =           0.0000
               WELLS =           0.0000                 WELLS =           0.0000
     HEAD DEP BOUNDS =      101562.7812       HEAD DEP BOUNDS =         749.5873

           TOTAL OUT =      116563.8594             TOTAL OUT =         749.5873

            IN - OUT =          -6.6719              IN - OUT =      -6.7383E-02

 PERCENT DISCREPANCY =          -0.01     PERCENT DISCREPANCY =          -0.01






         TIME SUMMARY AT END OF TIME STEP   40 IN STRESS PERIOD    3
                    SECONDS     MINUTES      HOURS       DAYS        YEARS
                    -----------------------------------------------------------
   TIME STEP LENGTH  86400.      1440.0      24.000      1.0000     2.73785E-03
 STRESS PERIOD TIME 3.45600E+06  57600.      960.00      40.000     0.10951    
         TOTAL TIME 1.21824E+07 2.03040E+05  3384.0      141.00     0.38604    
1
 
 SOLVING FOR HEAD 

 OUTPUT CONTROL FOR STRESS PERIOD    3   TIME STEP   41
    SAVE HEAD FOR ALL LAYERS
    SAVE DRAWDOWN FOR ALL LAYERS
    SAVE BUDGET
    PRINT HEAD FOR ALL LAYERS
    PRINT BUDGET
 UBDSV1 SAVING "         STORAGE" ON UNIT  53 AT TIME STEP 41, STRESS PERIOD   3
 UBDSV2 SAVING "   CONSTANT HEAD" ON UNIT  53 AT TIME STEP 41, STRESS PERIOD   3
 UBDSV1 SAVING "FLOW RIGHT FACE " ON UNIT  53 AT TIME STEP 41, STRESS PERIOD   3
 UBDSV1 SAVING "FLOW FRONT FACE " ON UNIT  53 AT TIME STEP 41, STRESS PERIOD   3
 UBDSV1 SAVING "FLOW LOWER FACE " ON UNIT  53 AT TIME STEP 41, STRESS PERIOD   3
1
              HEAD IN LAYER   1 AT END OF TIME STEP  41 IN STRESS PERIOD    3
  ---------------------------------------------------------------------------

            1           2           3           4           5
 ............................................................
   1    9.998       7.499       5.000       2.502      2.9983E-03
   2    9.998       7.499       5.000       2.502      2.9983E-03
   3    9.998       7.499       5.000       2.502      2.9983E-03
   4    9.998       7.499       5.000       2.502      2.9983E-03
   5    9.998       7.499       5.000       2.502      2.9983E-03
1
              HEAD IN LAYER   2 AT END OF TIME STEP  41 IN STRESS PERIOD    3
  ---------------------------------------------------------------------------

            1           2           3           4           5
 ............................................................
   1    9.998       7.499       5.000       2.502      2.9983E-03
   2    9.998       7.499       5.000       2.502      2.9983E-03
   3    9.998       7.499       5.000       2.502      2.9983E-03
   4    9.998       7.499       5.000       2.502      2.9983E-03
   5    9.998       7.499       5.000       2.502      2.9983E-03
1
              HEAD IN LAYER   3 AT END OF TIME STEP  41 IN STRESS PERIOD    3
  ---------------------------------------------------------------------------

            1           2           3           4           5
 ............................................................
   1    9.998       7.499       5.000       2.502      2.9983E-03
   2    9.998       7.499       5.000       2.502      2.9983E-03
   3    9.998       7.499       5.000       2.502      2.9983E-03
   4    9.998       7.499       5.000       2.502      2.9983E-03
   5    9.998       7.499       5.000       2.502      2.9983E-03
1
              HEAD IN LAYER   4 AT END OF TIME STEP  41 IN STRESS PERIOD    3
  ---------------------------------------------------------------------------

            1           2           3           4           5
 ............................................................
   1    9.998       7.499       5.000       2.502      2.9983E-03
   2    9.998       7.499       5.000       2.502      2.9983E-03
   3    9.998       7.499       5.000       2.502      2.9983E-03
   4    9.998       7.499       5.000       2.502      2.9983E-03
   5    9.998       7.499       5.000       2.502      2.9983E-03
1
              HEAD IN LAYER   5 AT END OF TIME STEP  41 IN STRESS PERIOD    3
  ---------------------------------------------------------------------------

            1           2           3           4           5
 ............................................................
   1    9.998       7.499       5.000       2.502      2.9983E-03
   2    9.998       7.499       5.000       2.502      2.9983E-03
   3    9.998       7.499       5.000       2.502      2.9983E-03
   4    9.998       7.499       5.000       2.502      2.9983E-03
   5    9.998       7.499       5.000       2.502      2.9983E-03

 HEAD WILL BE SAVED ON UNIT   51 AT END OF TIME STEP   41, STRESS PERIOD    3

 DRAWDOWN WILL BE SAVED ON UNIT   52 AT END OF TIME STEP   41, STRESS PERIOD    3
1
  VOLUMETRIC BUDGET FOR ENTIRE MODEL AT END OF TIME STEP   41, STRESS PERIOD   3
  ------------------------------------------------------------------------------

     CUMULATIVE VOLUMES      L**3       RATES FOR THIS TIME STEP      L**3/T
     ------------------                 ------------------------

           IN:                                      IN:
           ---                                      ---
             STORAGE =           0.0000               STORAGE =           0.0000
       CONSTANT HEAD =           0.0000         CONSTANT HEAD =           0.0000
               WELLS =           0.0000                 WELLS =           0.0000
     HEAD DEP BOUNDS =      117306.7109       HEAD DEP BOUNDS =         749.5200

            TOTAL IN =      117306.7109              TOTAL IN =         749.5200

          OUT:                                     OUT:
          ----                                     ----
             STORAGE =       15001.0791               STORAGE =           0.0000
       CONSTANT HEAD =           0.0000         CONSTANT HEAD =           0.0000
               WELLS =           0.0000                 WELLS =           0.0000
     HEAD DEP BOUNDS =      102312.3672       HEAD DEP BOUNDS =         749.5873

           TOTAL OUT =      117313.4453             TOTAL OUT =         749.5873

            IN - OUT =          -6.7344              IN - OUT =      -6.7383E-02

 PERCENT DISCREPANCY =          -0.01     PERCENT DISCREPANCY =          -0.01






         TIME SUMMARY AT END OF TIME STEP   41 IN STRESS PERIOD    3
                    SECONDS     MINUTES      HOURS       DAYS        YEARS
                    -----------------------------------------------------------
   TIME STEP LENGTH  86400.      1440.0      24.000      1.0000     2.73785E-03
 STRESS PERIOD TIME 3.54240E+06  59040.      984.00      41.000     0.11225    
         TOTAL TIME 1.22688E+07 2.04480E+05  3408.0      142.00     0.38877    
1
 
 SOLVING FOR HEAD 

 OUTPUT CONTROL FOR STRESS PERIOD    3   TIME STEP   42
    SAVE HEAD FOR ALL LAYERS
    SAVE DRAWDOWN FOR ALL LAYERS
    SAVE BUDGET
    PRINT HEAD FOR ALL LAYERS
    PRINT BUDGET
 UBDSV1 SAVING "         STORAGE" ON UNIT  53 AT TIME STEP 42, STRESS PERIOD   3
 UBDSV2 SAVING "   CONSTANT HEAD" ON UNIT  53 AT TIME STEP 42, STRESS PERIOD   3
 UBDSV1 SAVING "FLOW RIGHT FACE " ON UNIT  53 AT TIME STEP 42, STRESS PERIOD   3
 UBDSV1 SAVING "FLOW FRONT FACE " ON UNIT  53 AT TIME STEP 42, STRESS PERIOD   3
 UBDSV1 SAVING "FLOW LOWER FACE " ON UNIT  53 AT TIME STEP 42, STRESS PERIOD   3
1
              HEAD IN LAYER   1 AT END OF TIME STEP  42 IN STRESS PERIOD    3
  ---------------------------------------------------------------------------

            1           2           3           4           5
 ............................................................
   1    9.998       7.499       5.000       2.502      2.9983E-03
   2    9.998       7.499       5.000       2.502      2.9983E-03
   3    9.998       7.499       5.000       2.502      2.9983E-03
   4    9.998       7.499       5.000       2.502      2.9983E-03
   5    9.998       7.499       5.000       2.502      2.9983E-03
1
              HEAD IN LAYER   2 AT END OF TIME STEP  42 IN STRESS PERIOD    3
  ---------------------------------------------------------------------------

            1           2           3           4           5
 ............................................................
   1    9.998       7.499       5.000       2.502      2.9983E-03
   2    9.998       7.499       5.000       2.502      2.9983E-03
   3    9.998       7.499       5.000       2.502      2.9983E-03
   4    9.998       7.499       5.000       2.502      2.9983E-03
   5    9.998       7.499       5.000       2.502      2.9983E-03
1
              HEAD IN LAYER   3 AT END OF TIME STEP  42 IN STRESS PERIOD    3
  ---------------------------------------------------------------------------

            1           2           3           4           5
 ............................................................
   1    9.998       7.499       5.000       2.502      2.9983E-03
   2    9.998       7.499       5.000       2.502      2.9983E-03
   3    9.998       7.499       5.000       2.502      2.9983E-03
   4    9.998       7.499       5.000       2.502      2.9983E-03
   5    9.998       7.499       5.000       2.502      2.9983E-03
1
              HEAD IN LAYER   4 AT END OF TIME STEP  42 IN STRESS PERIOD    3
  ---------------------------------------------------------------------------

            1           2           3           4           5
 ............................................................
   1    9.998       7.499       5.000       2.502      2.9983E-03
   2    9.998       7.499       5.000       2.502      2.9983E-03
   3    9.998       7.499       5.000       2.502      2.9983E-03
   4    9.998       7.499       5.000       2.502      2.9983E-03
   5    9.998       7.499       5.000       2.502      2.9983E-03
1
              HEAD IN LAYER   5 AT END OF TIME STEP  42 IN STRESS PERIOD    3
  ---------------------------------------------------------------------------

            1           2           3           4           5
 ............................................................
   1    9.998       7.499       5.000       2.502      2.9983E-03
   2    9.998       7.499       5.000       2.502      2.9983E-03
   3    9.998       7.499       5.000       2.502      2.9983E-03
   4    9.998       7.499       5.000       2.502      2.9983E-03
   5    9.998       7.499       5.000       2.502      2.9983E-03

 HEAD WILL BE SAVED ON UNIT   51 AT END OF TIME STEP   42, STRESS PERIOD    3

 DRAWDOWN WILL BE SAVED ON UNIT   52 AT END OF TIME STEP   42, STRESS PERIOD    3
1
  VOLUMETRIC BUDGET FOR ENTIRE MODEL AT END OF TIME STEP   42, STRESS PERIOD   3
  ------------------------------------------------------------------------------

     CUMULATIVE VOLUMES      L**3       RATES FOR THIS TIME STEP      L**3/T
     ------------------                 ------------------------

           IN:                                      IN:
           ---                                      ---
             STORAGE =           0.0000               STORAGE =           0.0000
       CONSTANT HEAD =           0.0000         CONSTANT HEAD =           0.0000
               WELLS =           0.0000                 WELLS =           0.0000
     HEAD DEP BOUNDS =      118056.2344       HEAD DEP BOUNDS =         749.5200

            TOTAL IN =      118056.2344              TOTAL IN =         749.5200

          OUT:                                     OUT:
          ----                                     ----
             STORAGE =       15001.0791               STORAGE =           0.0000
       CONSTANT HEAD =           0.0000         CONSTANT HEAD =           0.0000
               WELLS =           0.0000                 WELLS =           0.0000
     HEAD DEP BOUNDS =      103061.9531       HEAD DEP BOUNDS =         749.5873

           TOTAL OUT =      118063.0312             TOTAL OUT =         749.5873

            IN - OUT =          -6.7969              IN - OUT =      -6.7383E-02

 PERCENT DISCREPANCY =          -0.01     PERCENT DISCREPANCY =          -0.01






         TIME SUMMARY AT END OF TIME STEP   42 IN STRESS PERIOD    3
                    SECONDS     MINUTES      HOURS       DAYS        YEARS
                    -----------------------------------------------------------
   TIME STEP LENGTH  86400.      1440.0      24.000      1.0000     2.73785E-03
 STRESS PERIOD TIME 3.62880E+06  60480.      1008.0      42.000     0.11499    
         TOTAL TIME 1.23552E+07 2.05920E+05  3432.0      143.00     0.39151    
1
 
 SOLVING FOR HEAD 

 OUTPUT CONTROL FOR STRESS PERIOD    3   TIME STEP   43
    SAVE HEAD FOR ALL LAYERS
    SAVE DRAWDOWN FOR ALL LAYERS
    SAVE BUDGET
    PRINT HEAD FOR ALL LAYERS
    PRINT BUDGET
 UBDSV1 SAVING "         STORAGE" ON UNIT  53 AT TIME STEP 43, STRESS PERIOD   3
 UBDSV2 SAVING "   CONSTANT HEAD" ON UNIT  53 AT TIME STEP 43, STRESS PERIOD   3
 UBDSV1 SAVING "FLOW RIGHT FACE " ON UNIT  53 AT TIME STEP 43, STRESS PERIOD   3
 UBDSV1 SAVING "FLOW FRONT FACE " ON UNIT  53 AT TIME STEP 43, STRESS PERIOD   3
 UBDSV1 SAVING "FLOW LOWER FACE " ON UNIT  53 AT TIME STEP 43, STRESS PERIOD   3
1
              HEAD IN LAYER   1 AT END OF TIME STEP  43 IN STRESS PERIOD    3
  ---------------------------------------------------------------------------

            1           2           3           4           5
 ............................................................
   1    9.998       7.499       5.000       2.502      2.9983E-03
   2    9.998       7.499       5.000       2.502      2.9983E-03
   3    9.998       7.499       5.000       2.502      2.9983E-03
   4    9.998       7.499       5.000       2.502      2.9983E-03
   5    9.998       7.499       5.000       2.502      2.9983E-03
1
              HEAD IN LAYER   2 AT END OF TIME STEP  43 IN STRESS PERIOD    3
  ---------------------------------------------------------------------------

            1           2           3           4           5
 ............................................................
   1    9.998       7.499       5.000       2.502      2.9983E-03
   2    9.998       7.499       5.000       2.502      2.9983E-03
   3    9.998       7.499       5.000       2.502      2.9983E-03
   4    9.998       7.499       5.000       2.502      2.9983E-03
   5    9.998       7.499       5.000       2.502      2.9983E-03
1
              HEAD IN LAYER   3 AT END OF TIME STEP  43 IN STRESS PERIOD    3
  ---------------------------------------------------------------------------

            1           2           3           4           5
 ............................................................
   1    9.998       7.499       5.000       2.502      2.9983E-03
   2    9.998       7.499       5.000       2.502      2.9983E-03
   3    9.998       7.499       5.000       2.502      2.9983E-03
   4    9.998       7.499       5.000       2.502      2.9983E-03
   5    9.998       7.499       5.000       2.502      2.9983E-03
1
              HEAD IN LAYER   4 AT END OF TIME STEP  43 IN STRESS PERIOD    3
  ---------------------------------------------------------------------------

            1           2           3           4           5
 ............................................................
   1    9.998       7.499       5.000       2.502      2.9983E-03
   2    9.998       7.499       5.000       2.502      2.9983E-03
   3    9.998       7.499       5.000       2.502      2.9983E-03
   4    9.998       7.499       5.000       2.502      2.9983E-03
   5    9.998       7.499       5.000       2.502      2.9983E-03
1
              HEAD IN LAYER   5 AT END OF TIME STEP  43 IN STRESS PERIOD    3
  ---------------------------------------------------------------------------

            1           2           3           4           5
 ............................................................
   1    9.998       7.499       5.000       2.502      2.9983E-03
   2    9.998       7.499       5.000       2.502      2.9983E-03
   3    9.998       7.499       5.000       2.502      2.9983E-03
   4    9.998       7.499       5.000       2.502      2.9983E-03
   5    9.998       7.499       5.000       2.502      2.9983E-03

 HEAD WILL BE SAVED ON UNIT   51 AT END OF TIME STEP   43, STRESS PERIOD    3

 DRAWDOWN WILL BE SAVED ON UNIT   52 AT END OF TIME STEP   43, STRESS PERIOD    3
1
  VOLUMETRIC BUDGET FOR ENTIRE MODEL AT END OF TIME STEP   43, STRESS PERIOD   3
  ------------------------------------------------------------------------------

     CUMULATIVE VOLUMES      L**3       RATES FOR THIS TIME STEP      L**3/T
     ------------------                 ------------------------

           IN:                                      IN:
           ---                                      ---
             STORAGE =           0.0000               STORAGE =           0.0000
       CONSTANT HEAD =           0.0000         CONSTANT HEAD =           0.0000
               WELLS =           0.0000                 WELLS =           0.0000
     HEAD DEP BOUNDS =      118805.7578       HEAD DEP BOUNDS =         749.5200

            TOTAL IN =      118805.7578              TOTAL IN =         749.5200

          OUT:                                     OUT:
          ----                                     ----
             STORAGE =       15001.0791               STORAGE =           0.0000
       CONSTANT HEAD =           0.0000         CONSTANT HEAD =           0.0000
               WELLS =           0.0000                 WELLS =           0.0000
     HEAD DEP BOUNDS =      103811.5391       HEAD DEP BOUNDS =         749.5873

           TOTAL OUT =      118812.6172             TOTAL OUT =         749.5873

            IN - OUT =          -6.8594              IN - OUT =      -6.7383E-02

 PERCENT DISCREPANCY =          -0.01     PERCENT DISCREPANCY =          -0.01






         TIME SUMMARY AT END OF TIME STEP   43 IN STRESS PERIOD    3
                    SECONDS     MINUTES      HOURS       DAYS        YEARS
                    -----------------------------------------------------------
   TIME STEP LENGTH  86400.      1440.0      24.000      1.0000     2.73785E-03
 STRESS PERIOD TIME 3.71520E+06  61920.      1032.0      43.000     0.11773    
         TOTAL TIME 1.24416E+07 2.07360E+05  3456.0      144.00     0.39425    
1
 
 SOLVING FOR HEAD 

 OUTPUT CONTROL FOR STRESS PERIOD    3   TIME STEP   44
    SAVE HEAD FOR ALL LAYERS
    SAVE DRAWDOWN FOR ALL LAYERS
    SAVE BUDGET
    PRINT HEAD FOR ALL LAYERS
    PRINT BUDGET
 UBDSV1 SAVING "         STORAGE" ON UNIT  53 AT TIME STEP 44, STRESS PERIOD   3
 UBDSV2 SAVING "   CONSTANT HEAD" ON UNIT  53 AT TIME STEP 44, STRESS PERIOD   3
 UBDSV1 SAVING "FLOW RIGHT FACE " ON UNIT  53 AT TIME STEP 44, STRESS PERIOD   3
 UBDSV1 SAVING "FLOW FRONT FACE " ON UNIT  53 AT TIME STEP 44, STRESS PERIOD   3
 UBDSV1 SAVING "FLOW LOWER FACE " ON UNIT  53 AT TIME STEP 44, STRESS PERIOD   3
1
              HEAD IN LAYER   1 AT END OF TIME STEP  44 IN STRESS PERIOD    3
  ---------------------------------------------------------------------------

            1           2           3           4           5
 ............................................................
   1    9.998       7.499       5.000       2.502      2.9983E-03
   2    9.998       7.499       5.000       2.502      2.9983E-03
   3    9.998       7.499       5.000       2.502      2.9983E-03
   4    9.998       7.499       5.000       2.502      2.9983E-03
   5    9.998       7.499       5.000       2.502      2.9983E-03
1
              HEAD IN LAYER   2 AT END OF TIME STEP  44 IN STRESS PERIOD    3
  ---------------------------------------------------------------------------

            1           2           3           4           5
 ............................................................
   1    9.998       7.499       5.000       2.502      2.9983E-03
   2    9.998       7.499       5.000       2.502      2.9983E-03
   3    9.998       7.499       5.000       2.502      2.9983E-03
   4    9.998       7.499       5.000       2.502      2.9983E-03
   5    9.998       7.499       5.000       2.502      2.9983E-03
1
              HEAD IN LAYER   3 AT END OF TIME STEP  44 IN STRESS PERIOD    3
  ---------------------------------------------------------------------------

            1           2           3           4           5
 ............................................................
   1    9.998       7.499       5.000       2.502      2.9983E-03
   2    9.998       7.499       5.000       2.502      2.9983E-03
   3    9.998       7.499       5.000       2.502      2.9983E-03
   4    9.998       7.499       5.000       2.502      2.9983E-03
   5    9.998       7.499       5.000       2.502      2.9983E-03
1
              HEAD IN LAYER   4 AT END OF TIME STEP  44 IN STRESS PERIOD    3
  ---------------------------------------------------------------------------

            1           2           3           4           5
 ............................................................
   1    9.998       7.499       5.000       2.502      2.9983E-03
   2    9.998       7.499       5.000       2.502      2.9983E-03
   3    9.998       7.499       5.000       2.502      2.9983E-03
   4    9.998       7.499       5.000       2.502      2.9983E-03
   5    9.998       7.499       5.000       2.502      2.9983E-03
1
              HEAD IN LAYER   5 AT END OF TIME STEP  44 IN STRESS PERIOD    3
  ---------------------------------------------------------------------------

            1           2           3           4           5
 ............................................................
   1    9.998       7.499       5.000       2.502      2.9983E-03
   2    9.998       7.499       5.000       2.502      2.9983E-03
   3    9.998       7.499       5.000       2.502      2.9983E-03
   4    9.998       7.499       5.000       2.502      2.9983E-03
   5    9.998       7.499       5.000       2.502      2.9983E-03

 HEAD WILL BE SAVED ON UNIT   51 AT END OF TIME STEP   44, STRESS PERIOD    3

 DRAWDOWN WILL BE SAVED ON UNIT   52 AT END OF TIME STEP   44, STRESS PERIOD    3
1
  VOLUMETRIC BUDGET FOR ENTIRE MODEL AT END OF TIME STEP   44, STRESS PERIOD   3
  ------------------------------------------------------------------------------

     CUMULATIVE VOLUMES      L**3       RATES FOR THIS TIME STEP      L**3/T
     ------------------                 ------------------------

           IN:                                      IN:
           ---                                      ---
             STORAGE =           0.0000               STORAGE =           0.0000
       CONSTANT HEAD =           0.0000         CONSTANT HEAD =           0.0000
               WELLS =           0.0000                 WELLS =           0.0000
     HEAD DEP BOUNDS =      119555.2812       HEAD DEP BOUNDS =         749.5200

            TOTAL IN =      119555.2812              TOTAL IN =         749.5200

          OUT:                                     OUT:
          ----                                     ----
             STORAGE =       15001.0791               STORAGE =           0.0000
       CONSTANT HEAD =           0.0000         CONSTANT HEAD =           0.0000
               WELLS =           0.0000                 WELLS =           0.0000
     HEAD DEP BOUNDS =      104561.1250       HEAD DEP BOUNDS =         749.5873

           TOTAL OUT =      119562.2031             TOTAL OUT =         749.5873

            IN - OUT =          -6.9219              IN - OUT =      -6.7383E-02

 PERCENT DISCREPANCY =          -0.01     PERCENT DISCREPANCY =          -0.01






         TIME SUMMARY AT END OF TIME STEP   44 IN STRESS PERIOD    3
                    SECONDS     MINUTES      HOURS       DAYS        YEARS
                    -----------------------------------------------------------
   TIME STEP LENGTH  86400.      1440.0      24.000      1.0000     2.73785E-03
 STRESS PERIOD TIME 3.80160E+06  63360.      1056.0      44.000     0.12047    
         TOTAL TIME 1.25280E+07 2.08800E+05  3480.0      145.00     0.39699    
1
 
 SOLVING FOR HEAD 

 OUTPUT CONTROL FOR STRESS PERIOD    3   TIME STEP   45
    SAVE HEAD FOR ALL LAYERS
    SAVE DRAWDOWN FOR ALL LAYERS
    SAVE BUDGET
    PRINT HEAD FOR ALL LAYERS
    PRINT BUDGET
 UBDSV1 SAVING "         STORAGE" ON UNIT  53 AT TIME STEP 45, STRESS PERIOD   3
 UBDSV2 SAVING "   CONSTANT HEAD" ON UNIT  53 AT TIME STEP 45, STRESS PERIOD   3
 UBDSV1 SAVING "FLOW RIGHT FACE " ON UNIT  53 AT TIME STEP 45, STRESS PERIOD   3
 UBDSV1 SAVING "FLOW FRONT FACE " ON UNIT  53 AT TIME STEP 45, STRESS PERIOD   3
 UBDSV1 SAVING "FLOW LOWER FACE " ON UNIT  53 AT TIME STEP 45, STRESS PERIOD   3
1
              HEAD IN LAYER   1 AT END OF TIME STEP  45 IN STRESS PERIOD    3
  ---------------------------------------------------------------------------

            1           2           3           4           5
 ............................................................
   1    9.998       7.499       5.000       2.502      2.9983E-03
   2    9.998       7.499       5.000       2.502      2.9983E-03
   3    9.998       7.499       5.000       2.502      2.9983E-03
   4    9.998       7.499       5.000       2.502      2.9983E-03
   5    9.998       7.499       5.000       2.502      2.9983E-03
1
              HEAD IN LAYER   2 AT END OF TIME STEP  45 IN STRESS PERIOD    3
  ---------------------------------------------------------------------------

            1           2           3           4           5
 ............................................................
   1    9.998       7.499       5.000       2.502      2.9983E-03
   2    9.998       7.499       5.000       2.502      2.9983E-03
   3    9.998       7.499       5.000       2.502      2.9983E-03
   4    9.998       7.499       5.000       2.502      2.9983E-03
   5    9.998       7.499       5.000       2.502      2.9983E-03
1
              HEAD IN LAYER   3 AT END OF TIME STEP  45 IN STRESS PERIOD    3
  ---------------------------------------------------------------------------

            1           2           3           4           5
 ............................................................
   1    9.998       7.499       5.000       2.502      2.9983E-03
   2    9.998       7.499       5.000       2.502      2.9983E-03
   3    9.998       7.499       5.000       2.502      2.9983E-03
   4    9.998       7.499       5.000       2.502      2.9983E-03
   5    9.998       7.499       5.000       2.502      2.9983E-03
1
              HEAD IN LAYER   4 AT END OF TIME STEP  45 IN STRESS PERIOD    3
  ---------------------------------------------------------------------------

            1           2           3           4           5
 ............................................................
   1    9.998       7.499       5.000       2.502      2.9983E-03
   2    9.998       7.499       5.000       2.502      2.9983E-03
   3    9.998       7.499       5.000       2.502      2.9983E-03
   4    9.998       7.499       5.000       2.502      2.9983E-03
   5    9.998       7.499       5.000       2.502      2.9983E-03
1
              HEAD IN LAYER   5 AT END OF TIME STEP  45 IN STRESS PERIOD    3
  ---------------------------------------------------------------------------

            1           2           3           4           5
 ............................................................
   1    9.998       7.499       5.000       2.502      2.9983E-03
   2    9.998       7.499       5.000       2.502      2.9983E-03
   3    9.998       7.499       5.000       2.502      2.9983E-03
   4    9.998       7.499       5.000       2.502      2.9983E-03
   5    9.998       7.499       5.000       2.502      2.9983E-03

 HEAD WILL BE SAVED ON UNIT   51 AT END OF TIME STEP   45, STRESS PERIOD    3

 DRAWDOWN WILL BE SAVED ON UNIT   52 AT END OF TIME STEP   45, STRESS PERIOD    3
1
  VOLUMETRIC BUDGET FOR ENTIRE MODEL AT END OF TIME STEP   45, STRESS PERIOD   3
  ------------------------------------------------------------------------------

     CUMULATIVE VOLUMES      L**3       RATES FOR THIS TIME STEP      L**3/T
     ------------------                 ------------------------

           IN:                                      IN:
           ---                                      ---
             STORAGE =           0.0000               STORAGE =           0.0000
       CONSTANT HEAD =           0.0000         CONSTANT HEAD =           0.0000
               WELLS =           0.0000                 WELLS =           0.0000
     HEAD DEP BOUNDS =      120304.8047       HEAD DEP BOUNDS =         749.5200

            TOTAL IN =      120304.8047              TOTAL IN =         749.5200

          OUT:                                     OUT:
          ----                                     ----
             STORAGE =       15001.0791               STORAGE =           0.0000
       CONSTANT HEAD =           0.0000         CONSTANT HEAD =           0.0000
               WELLS =           0.0000                 WELLS =           0.0000
     HEAD DEP BOUNDS =      105310.7109       HEAD DEP BOUNDS =         749.5873

           TOTAL OUT =      120311.7891             TOTAL OUT =         749.5873

            IN - OUT =          -6.9844              IN - OUT =      -6.7383E-02

 PERCENT DISCREPANCY =          -0.01     PERCENT DISCREPANCY =          -0.01






         TIME SUMMARY AT END OF TIME STEP   45 IN STRESS PERIOD    3
                    SECONDS     MINUTES      HOURS       DAYS        YEARS
                    -----------------------------------------------------------
   TIME STEP LENGTH  86400.      1440.0      24.000      1.0000     2.73785E-03
 STRESS PERIOD TIME 3.88800E+06  64800.      1080.0      45.000     0.12320    
         TOTAL TIME 1.26144E+07 2.10240E+05  3504.0      146.00     0.39973    
1
 
 SOLVING FOR HEAD 

 OUTPUT CONTROL FOR STRESS PERIOD    3   TIME STEP   46
    SAVE HEAD FOR ALL LAYERS
    SAVE DRAWDOWN FOR ALL LAYERS
    SAVE BUDGET
    PRINT HEAD FOR ALL LAYERS
    PRINT BUDGET
 UBDSV1 SAVING "         STORAGE" ON UNIT  53 AT TIME STEP 46, STRESS PERIOD   3
 UBDSV2 SAVING "   CONSTANT HEAD" ON UNIT  53 AT TIME STEP 46, STRESS PERIOD   3
 UBDSV1 SAVING "FLOW RIGHT FACE " ON UNIT  53 AT TIME STEP 46, STRESS PERIOD   3
 UBDSV1 SAVING "FLOW FRONT FACE " ON UNIT  53 AT TIME STEP 46, STRESS PERIOD   3
 UBDSV1 SAVING "FLOW LOWER FACE " ON UNIT  53 AT TIME STEP 46, STRESS PERIOD   3
1
              HEAD IN LAYER   1 AT END OF TIME STEP  46 IN STRESS PERIOD    3
  ---------------------------------------------------------------------------

            1           2           3           4           5
 ............................................................
   1    9.998       7.499       5.000       2.502      2.9983E-03
   2    9.998       7.499       5.000       2.502      2.9983E-03
   3    9.998       7.499       5.000       2.502      2.9983E-03
   4    9.998       7.499       5.000       2.502      2.9983E-03
   5    9.998       7.499       5.000       2.502      2.9983E-03
1
              HEAD IN LAYER   2 AT END OF TIME STEP  46 IN STRESS PERIOD    3
  ---------------------------------------------------------------------------

            1           2           3           4           5
 ............................................................
   1    9.998       7.499       5.000       2.502      2.9983E-03
   2    9.998       7.499       5.000       2.502      2.9983E-03
   3    9.998       7.499       5.000       2.502      2.9983E-03
   4    9.998       7.499       5.000       2.502      2.9983E-03
   5    9.998       7.499       5.000       2.502      2.9983E-03
1
              HEAD IN LAYER   3 AT END OF TIME STEP  46 IN STRESS PERIOD    3
  ---------------------------------------------------------------------------

            1           2           3           4           5
 ............................................................
   1    9.998       7.499       5.000       2.502      2.9983E-03
   2    9.998       7.499       5.000       2.502      2.9983E-03
   3    9.998       7.499       5.000       2.502      2.9983E-03
   4    9.998       7.499       5.000       2.502      2.9983E-03
   5    9.998       7.499       5.000       2.502      2.9983E-03
1
              HEAD IN LAYER   4 AT END OF TIME STEP  46 IN STRESS PERIOD    3
  ---------------------------------------------------------------------------

            1           2           3           4           5
 ............................................................
   1    9.998       7.499       5.000       2.502      2.9983E-03
   2    9.998       7.499       5.000       2.502      2.9983E-03
   3    9.998       7.499       5.000       2.502      2.9983E-03
   4    9.998       7.499       5.000       2.502      2.9983E-03
   5    9.998       7.499       5.000       2.502      2.9983E-03
1
              HEAD IN LAYER   5 AT END OF TIME STEP  46 IN STRESS PERIOD    3
  ---------------------------------------------------------------------------

            1           2           3           4           5
 ............................................................
   1    9.998       7.499       5.000       2.502      2.9983E-03
   2    9.998       7.499       5.000       2.502      2.9983E-03
   3    9.998       7.499       5.000       2.502      2.9983E-03
   4    9.998       7.499       5.000       2.502      2.9983E-03
   5    9.998       7.499       5.000       2.502      2.9983E-03

 HEAD WILL BE SAVED ON UNIT   51 AT END OF TIME STEP   46, STRESS PERIOD    3

 DRAWDOWN WILL BE SAVED ON UNIT   52 AT END OF TIME STEP   46, STRESS PERIOD    3
1
  VOLUMETRIC BUDGET FOR ENTIRE MODEL AT END OF TIME STEP   46, STRESS PERIOD   3
  ------------------------------------------------------------------------------

     CUMULATIVE VOLUMES      L**3       RATES FOR THIS TIME STEP      L**3/T
     ------------------                 ------------------------

           IN:                                      IN:
           ---                                      ---
             STORAGE =           0.0000               STORAGE =           0.0000
       CONSTANT HEAD =           0.0000         CONSTANT HEAD =           0.0000
               WELLS =           0.0000                 WELLS =           0.0000
     HEAD DEP BOUNDS =      121054.3281       HEAD DEP BOUNDS =         749.5200

            TOTAL IN =      121054.3281              TOTAL IN =         749.5200

          OUT:                                     OUT:
          ----                                     ----
             STORAGE =       15001.0791               STORAGE =           0.0000
       CONSTANT HEAD =           0.0000         CONSTANT HEAD =           0.0000
               WELLS =           0.0000                 WELLS =           0.0000
     HEAD DEP BOUNDS =      106060.2969       HEAD DEP BOUNDS =         749.5873

           TOTAL OUT =      121061.3750             TOTAL OUT =         749.5873

            IN - OUT =          -7.0469              IN - OUT =      -6.7383E-02

 PERCENT DISCREPANCY =          -0.01     PERCENT DISCREPANCY =          -0.01






         TIME SUMMARY AT END OF TIME STEP   46 IN STRESS PERIOD    3
                    SECONDS     MINUTES      HOURS       DAYS        YEARS
                    -----------------------------------------------------------
   TIME STEP LENGTH  86400.      1440.0      24.000      1.0000     2.73785E-03
 STRESS PERIOD TIME 3.97440E+06  66240.      1104.0      46.000     0.12594    
         TOTAL TIME 1.27008E+07 2.11680E+05  3528.0      147.00     0.40246    
1
 
 SOLVING FOR HEAD 

 OUTPUT CONTROL FOR STRESS PERIOD    3   TIME STEP   47
    SAVE HEAD FOR ALL LAYERS
    SAVE DRAWDOWN FOR ALL LAYERS
    SAVE BUDGET
    PRINT HEAD FOR ALL LAYERS
    PRINT BUDGET
 UBDSV1 SAVING "         STORAGE" ON UNIT  53 AT TIME STEP 47, STRESS PERIOD   3
 UBDSV2 SAVING "   CONSTANT HEAD" ON UNIT  53 AT TIME STEP 47, STRESS PERIOD   3
 UBDSV1 SAVING "FLOW RIGHT FACE " ON UNIT  53 AT TIME STEP 47, STRESS PERIOD   3
 UBDSV1 SAVING "FLOW FRONT FACE " ON UNIT  53 AT TIME STEP 47, STRESS PERIOD   3
 UBDSV1 SAVING "FLOW LOWER FACE " ON UNIT  53 AT TIME STEP 47, STRESS PERIOD   3
1
              HEAD IN LAYER   1 AT END OF TIME STEP  47 IN STRESS PERIOD    3
  ---------------------------------------------------------------------------

            1           2           3           4           5
 ............................................................
   1    9.998       7.499       5.000       2.502      2.9983E-03
   2    9.998       7.499       5.000       2.502      2.9983E-03
   3    9.998       7.499       5.000       2.502      2.9983E-03
   4    9.998       7.499       5.000       2.502      2.9983E-03
   5    9.998       7.499       5.000       2.502      2.9983E-03
1
              HEAD IN LAYER   2 AT END OF TIME STEP  47 IN STRESS PERIOD    3
  ---------------------------------------------------------------------------

            1           2           3           4           5
 ............................................................
   1    9.998       7.499       5.000       2.502      2.9983E-03
   2    9.998       7.499       5.000       2.502      2.9983E-03
   3    9.998       7.499       5.000       2.502      2.9983E-03
   4    9.998       7.499       5.000       2.502      2.9983E-03
   5    9.998       7.499       5.000       2.502      2.9983E-03
1
              HEAD IN LAYER   3 AT END OF TIME STEP  47 IN STRESS PERIOD    3
  ---------------------------------------------------------------------------

            1           2           3           4           5
 ............................................................
   1    9.998       7.499       5.000       2.502      2.9983E-03
   2    9.998       7.499       5.000       2.502      2.9983E-03
   3    9.998       7.499       5.000       2.502      2.9983E-03
   4    9.998       7.499       5.000       2.502      2.9983E-03
   5    9.998       7.499       5.000       2.502      2.9983E-03
1
              HEAD IN LAYER   4 AT END OF TIME STEP  47 IN STRESS PERIOD    3
  ---------------------------------------------------------------------------

            1           2           3           4           5
 ............................................................
   1    9.998       7.499       5.000       2.502      2.9983E-03
   2    9.998       7.499       5.000       2.502      2.9983E-03
   3    9.998       7.499       5.000       2.502      2.9983E-03
   4    9.998       7.499       5.000       2.502      2.9983E-03
   5    9.998       7.499       5.000       2.502      2.9983E-03
1
              HEAD IN LAYER   5 AT END OF TIME STEP  47 IN STRESS PERIOD    3
  ---------------------------------------------------------------------------

            1           2           3           4           5
 ............................................................
   1    9.998       7.499       5.000       2.502      2.9983E-03
   2    9.998       7.499       5.000       2.502      2.9983E-03
   3    9.998       7.499       5.000       2.502      2.9983E-03
   4    9.998       7.499       5.000       2.502      2.9983E-03
   5    9.998       7.499       5.000       2.502      2.9983E-03

 HEAD WILL BE SAVED ON UNIT   51 AT END OF TIME STEP   47, STRESS PERIOD    3

 DRAWDOWN WILL BE SAVED ON UNIT   52 AT END OF TIME STEP   47, STRESS PERIOD    3
1
  VOLUMETRIC BUDGET FOR ENTIRE MODEL AT END OF TIME STEP   47, STRESS PERIOD   3
  ------------------------------------------------------------------------------

     CUMULATIVE VOLUMES      L**3       RATES FOR THIS TIME STEP      L**3/T
     ------------------                 ------------------------

           IN:                                      IN:
           ---                                      ---
             STORAGE =           0.0000               STORAGE =           0.0000
       CONSTANT HEAD =           0.0000         CONSTANT HEAD =           0.0000
               WELLS =           0.0000                 WELLS =           0.0000
     HEAD DEP BOUNDS =      121803.8516       HEAD DEP BOUNDS =         749.5200

            TOTAL IN =      121803.8516              TOTAL IN =         749.5200

          OUT:                                     OUT:
          ----                                     ----
             STORAGE =       15001.0791               STORAGE =           0.0000
       CONSTANT HEAD =           0.0000         CONSTANT HEAD =           0.0000
               WELLS =           0.0000                 WELLS =           0.0000
     HEAD DEP BOUNDS =      106809.8828       HEAD DEP BOUNDS =         749.5873

           TOTAL OUT =      121810.9609             TOTAL OUT =         749.5873

            IN - OUT =          -7.1094              IN - OUT =      -6.7383E-02

 PERCENT DISCREPANCY =          -0.01     PERCENT DISCREPANCY =          -0.01






         TIME SUMMARY AT END OF TIME STEP   47 IN STRESS PERIOD    3
                    SECONDS     MINUTES      HOURS       DAYS        YEARS
                    -----------------------------------------------------------
   TIME STEP LENGTH  86400.      1440.0      24.000      1.0000     2.73785E-03
 STRESS PERIOD TIME 4.06080E+06  67680.      1128.0      47.000     0.12868    
         TOTAL TIME 1.27872E+07 2.13120E+05  3552.0      148.00     0.40520    
1
 
 SOLVING FOR HEAD 

 OUTPUT CONTROL FOR STRESS PERIOD    3   TIME STEP   48
    SAVE HEAD FOR ALL LAYERS
    SAVE DRAWDOWN FOR ALL LAYERS
    SAVE BUDGET
    PRINT HEAD FOR ALL LAYERS
    PRINT BUDGET
 UBDSV1 SAVING "         STORAGE" ON UNIT  53 AT TIME STEP 48, STRESS PERIOD   3
 UBDSV2 SAVING "   CONSTANT HEAD" ON UNIT  53 AT TIME STEP 48, STRESS PERIOD   3
 UBDSV1 SAVING "FLOW RIGHT FACE " ON UNIT  53 AT TIME STEP 48, STRESS PERIOD   3
 UBDSV1 SAVING "FLOW FRONT FACE " ON UNIT  53 AT TIME STEP 48, STRESS PERIOD   3
 UBDSV1 SAVING "FLOW LOWER FACE " ON UNIT  53 AT TIME STEP 48, STRESS PERIOD   3
1
              HEAD IN LAYER   1 AT END OF TIME STEP  48 IN STRESS PERIOD    3
  ---------------------------------------------------------------------------

            1           2           3           4           5
 ............................................................
   1    9.998       7.499       5.000       2.502      2.9983E-03
   2    9.998       7.499       5.000       2.502      2.9983E-03
   3    9.998       7.499       5.000       2.502      2.9983E-03
   4    9.998       7.499       5.000       2.502      2.9983E-03
   5    9.998       7.499       5.000       2.502      2.9983E-03
1
              HEAD IN LAYER   2 AT END OF TIME STEP  48 IN STRESS PERIOD    3
  ---------------------------------------------------------------------------

            1           2           3           4           5
 ............................................................
   1    9.998       7.499       5.000       2.502      2.9983E-03
   2    9.998       7.499       5.000       2.502      2.9983E-03
   3    9.998       7.499       5.000       2.502      2.9983E-03
   4    9.998       7.499       5.000       2.502      2.9983E-03
   5    9.998       7.499       5.000       2.502      2.9983E-03
1
              HEAD IN LAYER   3 AT END OF TIME STEP  48 IN STRESS PERIOD    3
  ---------------------------------------------------------------------------

            1           2           3           4           5
 ............................................................
   1    9.998       7.499       5.000       2.502      2.9983E-03
   2    9.998       7.499       5.000       2.502      2.9983E-03
   3    9.998       7.499       5.000       2.502      2.9983E-03
   4    9.998       7.499       5.000       2.502      2.9983E-03
   5    9.998       7.499       5.000       2.502      2.9983E-03
1
              HEAD IN LAYER   4 AT END OF TIME STEP  48 IN STRESS PERIOD    3
  ---------------------------------------------------------------------------

            1           2           3           4           5
 ............................................................
   1    9.998       7.499       5.000       2.502      2.9983E-03
   2    9.998       7.499       5.000       2.502      2.9983E-03
   3    9.998       7.499       5.000       2.502      2.9983E-03
   4    9.998       7.499       5.000       2.502      2.9983E-03
   5    9.998       7.499       5.000       2.502      2.9983E-03
1
              HEAD IN LAYER   5 AT END OF TIME STEP  48 IN STRESS PERIOD    3
  ---------------------------------------------------------------------------

            1           2           3           4           5
 ............................................................
   1    9.998       7.499       5.000       2.502      2.9983E-03
   2    9.998       7.499       5.000       2.502      2.9983E-03
   3    9.998       7.499       5.000       2.502      2.9983E-03
   4    9.998       7.499       5.000       2.502      2.9983E-03
   5    9.998       7.499       5.000       2.502      2.9983E-03

 HEAD WILL BE SAVED ON UNIT   51 AT END OF TIME STEP   48, STRESS PERIOD    3

 DRAWDOWN WILL BE SAVED ON UNIT   52 AT END OF TIME STEP   48, STRESS PERIOD    3
1
  VOLUMETRIC BUDGET FOR ENTIRE MODEL AT END OF TIME STEP   48, STRESS PERIOD   3
  ------------------------------------------------------------------------------

     CUMULATIVE VOLUMES      L**3       RATES FOR THIS TIME STEP      L**3/T
     ------------------                 ------------------------

           IN:                                      IN:
           ---                                      ---
             STORAGE =           0.0000               STORAGE =           0.0000
       CONSTANT HEAD =           0.0000         CONSTANT HEAD =           0.0000
               WELLS =           0.0000                 WELLS =           0.0000
     HEAD DEP BOUNDS =      122553.3750       HEAD DEP BOUNDS =         749.5200

            TOTAL IN =      122553.3750              TOTAL IN =         749.5200

          OUT:                                     OUT:
          ----                                     ----
             STORAGE =       15001.0791               STORAGE =           0.0000
       CONSTANT HEAD =           0.0000         CONSTANT HEAD =           0.0000
               WELLS =           0.0000                 WELLS =           0.0000
     HEAD DEP BOUNDS =      107559.4688       HEAD DEP BOUNDS =         749.5873

           TOTAL OUT =      122560.5469             TOTAL OUT =         749.5873

            IN - OUT =          -7.1719              IN - OUT =      -6.7383E-02

 PERCENT DISCREPANCY =          -0.01     PERCENT DISCREPANCY =          -0.01






         TIME SUMMARY AT END OF TIME STEP   48 IN STRESS PERIOD    3
                    SECONDS     MINUTES      HOURS       DAYS        YEARS
                    -----------------------------------------------------------
   TIME STEP LENGTH  86400.      1440.0      24.000      1.0000     2.73785E-03
 STRESS PERIOD TIME 4.14720E+06  69120.      1152.0      48.000     0.13142    
         TOTAL TIME 1.28736E+07 2.14560E+05  3576.0      149.00     0.40794    
1
 
 SOLVING FOR HEAD 

 OUTPUT CONTROL FOR STRESS PERIOD    3   TIME STEP   49
    SAVE HEAD FOR ALL LAYERS
    SAVE DRAWDOWN FOR ALL LAYERS
    SAVE BUDGET
    PRINT HEAD FOR ALL LAYERS
    PRINT BUDGET
 UBDSV1 SAVING "         STORAGE" ON UNIT  53 AT TIME STEP 49, STRESS PERIOD   3
 UBDSV2 SAVING "   CONSTANT HEAD" ON UNIT  53 AT TIME STEP 49, STRESS PERIOD   3
 UBDSV1 SAVING "FLOW RIGHT FACE " ON UNIT  53 AT TIME STEP 49, STRESS PERIOD   3
 UBDSV1 SAVING "FLOW FRONT FACE " ON UNIT  53 AT TIME STEP 49, STRESS PERIOD   3
 UBDSV1 SAVING "FLOW LOWER FACE " ON UNIT  53 AT TIME STEP 49, STRESS PERIOD   3
1
              HEAD IN LAYER   1 AT END OF TIME STEP  49 IN STRESS PERIOD    3
  ---------------------------------------------------------------------------

            1           2           3           4           5
 ............................................................
   1    9.998       7.499       5.000       2.502      2.9983E-03
   2    9.998       7.499       5.000       2.502      2.9983E-03
   3    9.998       7.499       5.000       2.502      2.9983E-03
   4    9.998       7.499       5.000       2.502      2.9983E-03
   5    9.998       7.499       5.000       2.502      2.9983E-03
1
              HEAD IN LAYER   2 AT END OF TIME STEP  49 IN STRESS PERIOD    3
  ---------------------------------------------------------------------------

            1           2           3           4           5
 ............................................................
   1    9.998       7.499       5.000       2.502      2.9983E-03
   2    9.998       7.499       5.000       2.502      2.9983E-03
   3    9.998       7.499       5.000       2.502      2.9983E-03
   4    9.998       7.499       5.000       2.502      2.9983E-03
   5    9.998       7.499       5.000       2.502      2.9983E-03
1
              HEAD IN LAYER   3 AT END OF TIME STEP  49 IN STRESS PERIOD    3
  ---------------------------------------------------------------------------

            1           2           3           4           5
 ............................................................
   1    9.998       7.499       5.000       2.502      2.9983E-03
   2    9.998       7.499       5.000       2.502      2.9983E-03
   3    9.998       7.499       5.000       2.502      2.9983E-03
   4    9.998       7.499       5.000       2.502      2.9983E-03
   5    9.998       7.499       5.000       2.502      2.9983E-03
1
              HEAD IN LAYER   4 AT END OF TIME STEP  49 IN STRESS PERIOD    3
  ---------------------------------------------------------------------------

            1           2           3           4           5
 ............................................................
   1    9.998       7.499       5.000       2.502      2.9983E-03
   2    9.998       7.499       5.000       2.502      2.9983E-03
   3    9.998       7.499       5.000       2.502      2.9983E-03
   4    9.998       7.499       5.000       2.502      2.9983E-03
   5    9.998       7.499       5.000       2.502      2.9983E-03
1
              HEAD IN LAYER   5 AT END OF TIME STEP  49 IN STRESS PERIOD    3
  ---------------------------------------------------------------------------

            1           2           3           4           5
 ............................................................
   1    9.998       7.499       5.000       2.502      2.9983E-03
   2    9.998       7.499       5.000       2.502      2.9983E-03
   3    9.998       7.499       5.000       2.502      2.9983E-03
   4    9.998       7.499       5.000       2.502      2.9983E-03
   5    9.998       7.499       5.000       2.502      2.9983E-03

 HEAD WILL BE SAVED ON UNIT   51 AT END OF TIME STEP   49, STRESS PERIOD    3

 DRAWDOWN WILL BE SAVED ON UNIT   52 AT END OF TIME STEP   49, STRESS PERIOD    3
1
  VOLUMETRIC BUDGET FOR ENTIRE MODEL AT END OF TIME STEP   49, STRESS PERIOD   3
  ------------------------------------------------------------------------------

     CUMULATIVE VOLUMES      L**3       RATES FOR THIS TIME STEP      L**3/T
     ------------------                 ------------------------

           IN:                                      IN:
           ---                                      ---
             STORAGE =           0.0000               STORAGE =           0.0000
       CONSTANT HEAD =           0.0000         CONSTANT HEAD =           0.0000
               WELLS =           0.0000                 WELLS =           0.0000
     HEAD DEP BOUNDS =      123302.8984       HEAD DEP BOUNDS =         749.5200

            TOTAL IN =      123302.8984              TOTAL IN =         749.5200

          OUT:                                     OUT:
          ----                                     ----
             STORAGE =       15001.0791               STORAGE =           0.0000
       CONSTANT HEAD =           0.0000         CONSTANT HEAD =           0.0000
               WELLS =           0.0000                 WELLS =           0.0000
     HEAD DEP BOUNDS =      108309.0547       HEAD DEP BOUNDS =         749.5873

           TOTAL OUT =      123310.1328             TOTAL OUT =         749.5873

            IN - OUT =          -7.2344              IN - OUT =      -6.7383E-02

 PERCENT DISCREPANCY =          -0.01     PERCENT DISCREPANCY =          -0.01






         TIME SUMMARY AT END OF TIME STEP   49 IN STRESS PERIOD    3
                    SECONDS     MINUTES      HOURS       DAYS        YEARS
                    -----------------------------------------------------------
   TIME STEP LENGTH  86400.      1440.0      24.000      1.0000     2.73785E-03
 STRESS PERIOD TIME 4.23360E+06  70560.      1176.0      49.000     0.13415    
         TOTAL TIME 1.29600E+07 2.16000E+05  3600.0      150.00     0.41068    
1
 
 SOLVING FOR HEAD 

 OUTPUT CONTROL FOR STRESS PERIOD    3   TIME STEP   50
    SAVE HEAD FOR ALL LAYERS
    SAVE DRAWDOWN FOR ALL LAYERS
    SAVE BUDGET
    PRINT HEAD FOR ALL LAYERS
    PRINT BUDGET
 UBDSV1 SAVING "         STORAGE" ON UNIT  53 AT TIME STEP 50, STRESS PERIOD   3
 UBDSV2 SAVING "   CONSTANT HEAD" ON UNIT  53 AT TIME STEP 50, STRESS PERIOD   3
 UBDSV1 SAVING "FLOW RIGHT FACE " ON UNIT  53 AT TIME STEP 50, STRESS PERIOD   3
 UBDSV1 SAVING "FLOW FRONT FACE " ON UNIT  53 AT TIME STEP 50, STRESS PERIOD   3
 UBDSV1 SAVING "FLOW LOWER FACE " ON UNIT  53 AT TIME STEP 50, STRESS PERIOD   3
1
              HEAD IN LAYER   1 AT END OF TIME STEP  50 IN STRESS PERIOD    3
  ---------------------------------------------------------------------------

            1           2           3           4           5
 ............................................................
   1    9.998       7.499       5.000       2.502      2.9983E-03
   2    9.998       7.499       5.000       2.502      2.9983E-03
   3    9.998       7.499       5.000       2.502      2.9983E-03
   4    9.998       7.499       5.000       2.502      2.9983E-03
   5    9.998       7.499       5.000       2.502      2.9983E-03
1
              HEAD IN LAYER   2 AT END OF TIME STEP  50 IN STRESS PERIOD    3
  ---------------------------------------------------------------------------

            1           2           3           4           5
 ............................................................
   1    9.998       7.499       5.000       2.502      2.9983E-03
   2    9.998       7.499       5.000       2.502      2.9983E-03
   3    9.998       7.499       5.000       2.502      2.9983E-03
   4    9.998       7.499       5.000       2.502      2.9983E-03
   5    9.998       7.499       5.000       2.502      2.9983E-03
1
              HEAD IN LAYER   3 AT END OF TIME STEP  50 IN STRESS PERIOD    3
  ---------------------------------------------------------------------------

            1           2           3           4           5
 ............................................................
   1    9.998       7.499       5.000       2.502      2.9983E-03
   2    9.998       7.499       5.000       2.502      2.9983E-03
   3    9.998       7.499       5.000       2.502      2.9983E-03
   4    9.998       7.499       5.000       2.502      2.9983E-03
   5    9.998       7.499       5.000       2.502      2.9983E-03
1
              HEAD IN LAYER   4 AT END OF TIME STEP  50 IN STRESS PERIOD    3
  ---------------------------------------------------------------------------

            1           2           3           4           5
 ............................................................
   1    9.998       7.499       5.000       2.502      2.9983E-03
   2    9.998       7.499       5.000       2.502      2.9983E-03
   3    9.998       7.499       5.000       2.502      2.9983E-03
   4    9.998       7.499       5.000       2.502      2.9983E-03
   5    9.998       7.499       5.000       2.502      2.9983E-03
1
              HEAD IN LAYER   5 AT END OF TIME STEP  50 IN STRESS PERIOD    3
  ---------------------------------------------------------------------------

            1           2           3           4           5
 ............................................................
   1    9.998       7.499       5.000       2.502      2.9983E-03
   2    9.998       7.499       5.000       2.502      2.9983E-03
   3    9.998       7.499       5.000       2.502      2.9983E-03
   4    9.998       7.499       5.000       2.502      2.9983E-03
   5    9.998       7.499       5.000       2.502      2.9983E-03

 HEAD WILL BE SAVED ON UNIT   51 AT END OF TIME STEP   50, STRESS PERIOD    3

 DRAWDOWN WILL BE SAVED ON UNIT   52 AT END OF TIME STEP   50, STRESS PERIOD    3
1
  VOLUMETRIC BUDGET FOR ENTIRE MODEL AT END OF TIME STEP   50, STRESS PERIOD   3
  ------------------------------------------------------------------------------

     CUMULATIVE VOLUMES      L**3       RATES FOR THIS TIME STEP      L**3/T
     ------------------                 ------------------------

           IN:                                      IN:
           ---                                      ---
             STORAGE =           0.0000               STORAGE =           0.0000
       CONSTANT HEAD =           0.0000         CONSTANT HEAD =           0.0000
               WELLS =           0.0000                 WELLS =           0.0000
     HEAD DEP BOUNDS =      124052.4219       HEAD DEP BOUNDS =         749.5200

            TOTAL IN =      124052.4219              TOTAL IN =         749.5200

          OUT:                                     OUT:
          ----                                     ----
             STORAGE =       15001.0791               STORAGE =           0.0000
       CONSTANT HEAD =           0.0000         CONSTANT HEAD =           0.0000
               WELLS =           0.0000                 WELLS =           0.0000
     HEAD DEP BOUNDS =      109058.6406       HEAD DEP BOUNDS =         749.5873

           TOTAL OUT =      124059.7188             TOTAL OUT =         749.5873

            IN - OUT =          -7.2969              IN - OUT =      -6.7383E-02

 PERCENT DISCREPANCY =          -0.01     PERCENT DISCREPANCY =          -0.01






         TIME SUMMARY AT END OF TIME STEP   50 IN STRESS PERIOD    3
                    SECONDS     MINUTES      HOURS       DAYS        YEARS
                    -----------------------------------------------------------
   TIME STEP LENGTH  86400.      1440.0      24.000      1.0000     2.73785E-03
 STRESS PERIOD TIME 4.32000E+06  72000.      1200.0      50.000     0.13689    
         TOTAL TIME 1.30464E+07 2.17440E+05  3624.0      151.00     0.41342    
1
 
 SOLVING FOR HEAD 

 OUTPUT CONTROL FOR STRESS PERIOD    3   TIME STEP   51
    SAVE HEAD FOR ALL LAYERS
    SAVE DRAWDOWN FOR ALL LAYERS
    SAVE BUDGET
    PRINT HEAD FOR ALL LAYERS
    PRINT BUDGET
 UBDSV1 SAVING "         STORAGE" ON UNIT  53 AT TIME STEP 51, STRESS PERIOD   3
 UBDSV2 SAVING "   CONSTANT HEAD" ON UNIT  53 AT TIME STEP 51, STRESS PERIOD   3
 UBDSV1 SAVING "FLOW RIGHT FACE " ON UNIT  53 AT TIME STEP 51, STRESS PERIOD   3
 UBDSV1 SAVING "FLOW FRONT FACE " ON UNIT  53 AT TIME STEP 51, STRESS PERIOD   3
 UBDSV1 SAVING "FLOW LOWER FACE " ON UNIT  53 AT TIME STEP 51, STRESS PERIOD   3
1
              HEAD IN LAYER   1 AT END OF TIME STEP  51 IN STRESS PERIOD    3
  ---------------------------------------------------------------------------

            1           2           3           4           5
 ............................................................
   1    9.998       7.499       5.000       2.502      2.9983E-03
   2    9.998       7.499       5.000       2.502      2.9983E-03
   3    9.998       7.499       5.000       2.502      2.9983E-03
   4    9.998       7.499       5.000       2.502      2.9983E-03
   5    9.998       7.499       5.000       2.502      2.9983E-03
1
              HEAD IN LAYER   2 AT END OF TIME STEP  51 IN STRESS PERIOD    3
  ---------------------------------------------------------------------------

            1           2           3           4           5
 ............................................................
   1    9.998       7.499       5.000       2.502      2.9983E-03
   2    9.998       7.499       5.000       2.502      2.9983E-03
   3    9.998       7.499       5.000       2.502      2.9983E-03
   4    9.998       7.499       5.000       2.502      2.9983E-03
   5    9.998       7.499       5.000       2.502      2.9983E-03
1
              HEAD IN LAYER   3 AT END OF TIME STEP  51 IN STRESS PERIOD    3
  ---------------------------------------------------------------------------

            1           2           3           4           5
 ............................................................
   1    9.998       7.499       5.000       2.502      2.9983E-03
   2    9.998       7.499       5.000       2.502      2.9983E-03
   3    9.998       7.499       5.000       2.502      2.9983E-03
   4    9.998       7.499       5.000       2.502      2.9983E-03
   5    9.998       7.499       5.000       2.502      2.9983E-03
1
              HEAD IN LAYER   4 AT END OF TIME STEP  51 IN STRESS PERIOD    3
  ---------------------------------------------------------------------------

            1           2           3           4           5
 ............................................................
   1    9.998       7.499       5.000       2.502      2.9983E-03
   2    9.998       7.499       5.000       2.502      2.9983E-03
   3    9.998       7.499       5.000       2.502      2.9983E-03
   4    9.998       7.499       5.000       2.502      2.9983E-03
   5    9.998       7.499       5.000       2.502      2.9983E-03
1
              HEAD IN LAYER   5 AT END OF TIME STEP  51 IN STRESS PERIOD    3
  ---------------------------------------------------------------------------

            1           2           3           4           5
 ............................................................
   1    9.998       7.499       5.000       2.502      2.9983E-03
   2    9.998       7.499       5.000       2.502      2.9983E-03
   3    9.998       7.499       5.000       2.502      2.9983E-03
   4    9.998       7.499       5.000       2.502      2.9983E-03
   5    9.998       7.499       5.000       2.502      2.9983E-03

 HEAD WILL BE SAVED ON UNIT   51 AT END OF TIME STEP   51, STRESS PERIOD    3

 DRAWDOWN WILL BE SAVED ON UNIT   52 AT END OF TIME STEP   51, STRESS PERIOD    3
1
  VOLUMETRIC BUDGET FOR ENTIRE MODEL AT END OF TIME STEP   51, STRESS PERIOD   3
  ------------------------------------------------------------------------------

     CUMULATIVE VOLUMES      L**3       RATES FOR THIS TIME STEP      L**3/T
     ------------------                 ------------------------

           IN:                                      IN:
           ---                                      ---
             STORAGE =           0.0000               STORAGE =           0.0000
       CONSTANT HEAD =           0.0000         CONSTANT HEAD =           0.0000
               WELLS =           0.0000                 WELLS =           0.0000
     HEAD DEP BOUNDS =      124801.9453       HEAD DEP BOUNDS =         749.5200

            TOTAL IN =      124801.9453              TOTAL IN =         749.5200

          OUT:                                     OUT:
          ----                                     ----
             STORAGE =       15001.0791               STORAGE =           0.0000
       CONSTANT HEAD =           0.0000         CONSTANT HEAD =           0.0000
               WELLS =           0.0000                 WELLS =           0.0000
     HEAD DEP BOUNDS =      109808.2266       HEAD DEP BOUNDS =         749.5873

           TOTAL OUT =      124809.3047             TOTAL OUT =         749.5873

            IN - OUT =          -7.3594              IN - OUT =      -6.7383E-02

 PERCENT DISCREPANCY =          -0.01     PERCENT DISCREPANCY =          -0.01






         TIME SUMMARY AT END OF TIME STEP   51 IN STRESS PERIOD    3
                    SECONDS     MINUTES      HOURS       DAYS        YEARS
                    -----------------------------------------------------------
   TIME STEP LENGTH  86400.      1440.0      24.000      1.0000     2.73785E-03
 STRESS PERIOD TIME 4.40640E+06  73440.      1224.0      51.000     0.13963    
         TOTAL TIME 1.31328E+07 2.18880E+05  3648.0      152.00     0.41615    
1
 
 SOLVING FOR HEAD 

 OUTPUT CONTROL FOR STRESS PERIOD    3   TIME STEP   52
    SAVE HEAD FOR ALL LAYERS
    SAVE DRAWDOWN FOR ALL LAYERS
    SAVE BUDGET
    PRINT HEAD FOR ALL LAYERS
    PRINT BUDGET
 UBDSV1 SAVING "         STORAGE" ON UNIT  53 AT TIME STEP 52, STRESS PERIOD   3
 UBDSV2 SAVING "   CONSTANT HEAD" ON UNIT  53 AT TIME STEP 52, STRESS PERIOD   3
 UBDSV1 SAVING "FLOW RIGHT FACE " ON UNIT  53 AT TIME STEP 52, STRESS PERIOD   3
 UBDSV1 SAVING "FLOW FRONT FACE " ON UNIT  53 AT TIME STEP 52, STRESS PERIOD   3
 UBDSV1 SAVING "FLOW LOWER FACE " ON UNIT  53 AT TIME STEP 52, STRESS PERIOD   3
1
              HEAD IN LAYER   1 AT END OF TIME STEP  52 IN STRESS PERIOD    3
  ---------------------------------------------------------------------------

            1           2           3           4           5
 ............................................................
   1    9.998       7.499       5.000       2.502      2.9983E-03
   2    9.998       7.499       5.000       2.502      2.9983E-03
   3    9.998       7.499       5.000       2.502      2.9983E-03
   4    9.998       7.499       5.000       2.502      2.9983E-03
   5    9.998       7.499       5.000       2.502      2.9983E-03
1
              HEAD IN LAYER   2 AT END OF TIME STEP  52 IN STRESS PERIOD    3
  ---------------------------------------------------------------------------

            1           2           3           4           5
 ............................................................
   1    9.998       7.499       5.000       2.502      2.9983E-03
   2    9.998       7.499       5.000       2.502      2.9983E-03
   3    9.998       7.499       5.000       2.502      2.9983E-03
   4    9.998       7.499       5.000       2.502      2.9983E-03
   5    9.998       7.499       5.000       2.502      2.9983E-03
1
              HEAD IN LAYER   3 AT END OF TIME STEP  52 IN STRESS PERIOD    3
  ---------------------------------------------------------------------------

            1           2           3           4           5
 ............................................................
   1    9.998       7.499       5.000       2.502      2.9983E-03
   2    9.998       7.499       5.000       2.502      2.9983E-03
   3    9.998       7.499       5.000       2.502      2.9983E-03
   4    9.998       7.499       5.000       2.502      2.9983E-03
   5    9.998       7.499       5.000       2.502      2.9983E-03
1
              HEAD IN LAYER   4 AT END OF TIME STEP  52 IN STRESS PERIOD    3
  ---------------------------------------------------------------------------

            1           2           3           4           5
 ............................................................
   1    9.998       7.499       5.000       2.502      2.9983E-03
   2    9.998       7.499       5.000       2.502      2.9983E-03
   3    9.998       7.499       5.000       2.502      2.9983E-03
   4    9.998       7.499       5.000       2.502      2.9983E-03
   5    9.998       7.499       5.000       2.502      2.9983E-03
1
              HEAD IN LAYER   5 AT END OF TIME STEP  52 IN STRESS PERIOD    3
  ---------------------------------------------------------------------------

            1           2           3           4           5
 ............................................................
   1    9.998       7.499       5.000       2.502      2.9983E-03
   2    9.998       7.499       5.000       2.502      2.9983E-03
   3    9.998       7.499       5.000       2.502      2.9983E-03
   4    9.998       7.499       5.000       2.502      2.9983E-03
   5    9.998       7.499       5.000       2.502      2.9983E-03

 HEAD WILL BE SAVED ON UNIT   51 AT END OF TIME STEP   52, STRESS PERIOD    3

 DRAWDOWN WILL BE SAVED ON UNIT   52 AT END OF TIME STEP   52, STRESS PERIOD    3
1
  VOLUMETRIC BUDGET FOR ENTIRE MODEL AT END OF TIME STEP   52, STRESS PERIOD   3
  ------------------------------------------------------------------------------

     CUMULATIVE VOLUMES      L**3       RATES FOR THIS TIME STEP      L**3/T
     ------------------                 ------------------------

           IN:                                      IN:
           ---                                      ---
             STORAGE =           0.0000               STORAGE =           0.0000
       CONSTANT HEAD =           0.0000         CONSTANT HEAD =           0.0000
               WELLS =           0.0000                 WELLS =           0.0000
     HEAD DEP BOUNDS =      125551.4688       HEAD DEP BOUNDS =         749.5200

            TOTAL IN =      125551.4688              TOTAL IN =         749.5200

          OUT:                                     OUT:
          ----                                     ----
             STORAGE =       15001.0791               STORAGE =           0.0000
       CONSTANT HEAD =           0.0000         CONSTANT HEAD =           0.0000
               WELLS =           0.0000                 WELLS =           0.0000
     HEAD DEP BOUNDS =      110557.8125       HEAD DEP BOUNDS =         749.5873

           TOTAL OUT =      125558.8906             TOTAL OUT =         749.5873

            IN - OUT =          -7.4219              IN - OUT =      -6.7383E-02

 PERCENT DISCREPANCY =          -0.01     PERCENT DISCREPANCY =          -0.01






         TIME SUMMARY AT END OF TIME STEP   52 IN STRESS PERIOD    3
                    SECONDS     MINUTES      HOURS       DAYS        YEARS
                    -----------------------------------------------------------
   TIME STEP LENGTH  86400.      1440.0      24.000      1.0000     2.73785E-03
 STRESS PERIOD TIME 4.49280E+06  74880.      1248.0      52.000     0.14237    
         TOTAL TIME 1.32192E+07 2.20320E+05  3672.0      153.00     0.41889    
1
 
 SOLVING FOR HEAD 

 OUTPUT CONTROL FOR STRESS PERIOD    3   TIME STEP   53
    SAVE HEAD FOR ALL LAYERS
    SAVE DRAWDOWN FOR ALL LAYERS
    SAVE BUDGET
    PRINT HEAD FOR ALL LAYERS
    PRINT BUDGET
 UBDSV1 SAVING "         STORAGE" ON UNIT  53 AT TIME STEP 53, STRESS PERIOD   3
 UBDSV2 SAVING "   CONSTANT HEAD" ON UNIT  53 AT TIME STEP 53, STRESS PERIOD   3
 UBDSV1 SAVING "FLOW RIGHT FACE " ON UNIT  53 AT TIME STEP 53, STRESS PERIOD   3
 UBDSV1 SAVING "FLOW FRONT FACE " ON UNIT  53 AT TIME STEP 53, STRESS PERIOD   3
 UBDSV1 SAVING "FLOW LOWER FACE " ON UNIT  53 AT TIME STEP 53, STRESS PERIOD   3
1
              HEAD IN LAYER   1 AT END OF TIME STEP  53 IN STRESS PERIOD    3
  ---------------------------------------------------------------------------

            1           2           3           4           5
 ............................................................
   1    9.998       7.499       5.000       2.502      2.9983E-03
   2    9.998       7.499       5.000       2.502      2.9983E-03
   3    9.998       7.499       5.000       2.502      2.9983E-03
   4    9.998       7.499       5.000       2.502      2.9983E-03
   5    9.998       7.499       5.000       2.502      2.9983E-03
1
              HEAD IN LAYER   2 AT END OF TIME STEP  53 IN STRESS PERIOD    3
  ---------------------------------------------------------------------------

            1           2           3           4           5
 ............................................................
   1    9.998       7.499       5.000       2.502      2.9983E-03
   2    9.998       7.499       5.000       2.502      2.9983E-03
   3    9.998       7.499       5.000       2.502      2.9983E-03
   4    9.998       7.499       5.000       2.502      2.9983E-03
   5    9.998       7.499       5.000       2.502      2.9983E-03
1
              HEAD IN LAYER   3 AT END OF TIME STEP  53 IN STRESS PERIOD    3
  ---------------------------------------------------------------------------

            1           2           3           4           5
 ............................................................
   1    9.998       7.499       5.000       2.502      2.9983E-03
   2    9.998       7.499       5.000       2.502      2.9983E-03
   3    9.998       7.499       5.000       2.502      2.9983E-03
   4    9.998       7.499       5.000       2.502      2.9983E-03
   5    9.998       7.499       5.000       2.502      2.9983E-03
1
              HEAD IN LAYER   4 AT END OF TIME STEP  53 IN STRESS PERIOD    3
  ---------------------------------------------------------------------------

            1           2           3           4           5
 ............................................................
   1    9.998       7.499       5.000       2.502      2.9983E-03
   2    9.998       7.499       5.000       2.502      2.9983E-03
   3    9.998       7.499       5.000       2.502      2.9983E-03
   4    9.998       7.499       5.000       2.502      2.9983E-03
   5    9.998       7.499       5.000       2.502      2.9983E-03
1
              HEAD IN LAYER   5 AT END OF TIME STEP  53 IN STRESS PERIOD    3
  ---------------------------------------------------------------------------

            1           2           3           4           5
 ............................................................
   1    9.998       7.499       5.000       2.502      2.9983E-03
   2    9.998       7.499       5.000       2.502      2.9983E-03
   3    9.998       7.499       5.000       2.502      2.9983E-03
   4    9.998       7.499       5.000       2.502      2.9983E-03
   5    9.998       7.499       5.000       2.502      2.9983E-03

 HEAD WILL BE SAVED ON UNIT   51 AT END OF TIME STEP   53, STRESS PERIOD    3

 DRAWDOWN WILL BE SAVED ON UNIT   52 AT END OF TIME STEP   53, STRESS PERIOD    3
1
  VOLUMETRIC BUDGET FOR ENTIRE MODEL AT END OF TIME STEP   53, STRESS PERIOD   3
  ------------------------------------------------------------------------------

     CUMULATIVE VOLUMES      L**3       RATES FOR THIS TIME STEP      L**3/T
     ------------------                 ------------------------

           IN:                                      IN:
           ---                                      ---
             STORAGE =           0.0000               STORAGE =           0.0000
       CONSTANT HEAD =           0.0000         CONSTANT HEAD =           0.0000
               WELLS =           0.0000                 WELLS =           0.0000
     HEAD DEP BOUNDS =      126300.9922       HEAD DEP BOUNDS =         749.5200

            TOTAL IN =      126300.9922              TOTAL IN =         749.5200

          OUT:                                     OUT:
          ----                                     ----
             STORAGE =       15001.0791               STORAGE =           0.0000
       CONSTANT HEAD =           0.0000         CONSTANT HEAD =           0.0000
               WELLS =           0.0000                 WELLS =           0.0000
     HEAD DEP BOUNDS =      111307.3984       HEAD DEP BOUNDS =         749.5873

           TOTAL OUT =      126308.4766             TOTAL OUT =         749.5873

            IN - OUT =          -7.4844              IN - OUT =      -6.7383E-02

 PERCENT DISCREPANCY =          -0.01     PERCENT DISCREPANCY =          -0.01






         TIME SUMMARY AT END OF TIME STEP   53 IN STRESS PERIOD    3
                    SECONDS     MINUTES      HOURS       DAYS        YEARS
                    -----------------------------------------------------------
   TIME STEP LENGTH  86400.      1440.0      24.000      1.0000     2.73785E-03
 STRESS PERIOD TIME 4.57920E+06  76320.      1272.0      53.000     0.14511    
         TOTAL TIME 1.33056E+07 2.21760E+05  3696.0      154.00     0.42163    
1
 
 SOLVING FOR HEAD 

 OUTPUT CONTROL FOR STRESS PERIOD    3   TIME STEP   54
    SAVE HEAD FOR ALL LAYERS
    SAVE DRAWDOWN FOR ALL LAYERS
    SAVE BUDGET
    PRINT HEAD FOR ALL LAYERS
    PRINT BUDGET
 UBDSV1 SAVING "         STORAGE" ON UNIT  53 AT TIME STEP 54, STRESS PERIOD   3
 UBDSV2 SAVING "   CONSTANT HEAD" ON UNIT  53 AT TIME STEP 54, STRESS PERIOD   3
 UBDSV1 SAVING "FLOW RIGHT FACE " ON UNIT  53 AT TIME STEP 54, STRESS PERIOD   3
 UBDSV1 SAVING "FLOW FRONT FACE " ON UNIT  53 AT TIME STEP 54, STRESS PERIOD   3
 UBDSV1 SAVING "FLOW LOWER FACE " ON UNIT  53 AT TIME STEP 54, STRESS PERIOD   3
1
              HEAD IN LAYER   1 AT END OF TIME STEP  54 IN STRESS PERIOD    3
  ---------------------------------------------------------------------------

            1           2           3           4           5
 ............................................................
   1    9.998       7.499       5.000       2.502      2.9983E-03
   2    9.998       7.499       5.000       2.502      2.9983E-03
   3    9.998       7.499       5.000       2.502      2.9983E-03
   4    9.998       7.499       5.000       2.502      2.9983E-03
   5    9.998       7.499       5.000       2.502      2.9983E-03
1
              HEAD IN LAYER   2 AT END OF TIME STEP  54 IN STRESS PERIOD    3
  ---------------------------------------------------------------------------

            1           2           3           4           5
 ............................................................
   1    9.998       7.499       5.000       2.502      2.9983E-03
   2    9.998       7.499       5.000       2.502      2.9983E-03
   3    9.998       7.499       5.000       2.502      2.9983E-03
   4    9.998       7.499       5.000       2.502      2.9983E-03
   5    9.998       7.499       5.000       2.502      2.9983E-03
1
              HEAD IN LAYER   3 AT END OF TIME STEP  54 IN STRESS PERIOD    3
  ---------------------------------------------------------------------------

            1           2           3           4           5
 ............................................................
   1    9.998       7.499       5.000       2.502      2.9983E-03
   2    9.998       7.499       5.000       2.502      2.9983E-03
   3    9.998       7.499       5.000       2.502      2.9983E-03
   4    9.998       7.499       5.000       2.502      2.9983E-03
   5    9.998       7.499       5.000       2.502      2.9983E-03
1
              HEAD IN LAYER   4 AT END OF TIME STEP  54 IN STRESS PERIOD    3
  ---------------------------------------------------------------------------

            1           2           3           4           5
 ............................................................
   1    9.998       7.499       5.000       2.502      2.9983E-03
   2    9.998       7.499       5.000       2.502      2.9983E-03
   3    9.998       7.499       5.000       2.502      2.9983E-03
   4    9.998       7.499       5.000       2.502      2.9983E-03
   5    9.998       7.499       5.000       2.502      2.9983E-03
1
              HEAD IN LAYER   5 AT END OF TIME STEP  54 IN STRESS PERIOD    3
  ---------------------------------------------------------------------------

            1           2           3           4           5
 ............................................................
   1    9.998       7.499       5.000       2.502      2.9983E-03
   2    9.998       7.499       5.000       2.502      2.9983E-03
   3    9.998       7.499       5.000       2.502      2.9983E-03
   4    9.998       7.499       5.000       2.502      2.9983E-03
   5    9.998       7.499       5.000       2.502      2.9983E-03

 HEAD WILL BE SAVED ON UNIT   51 AT END OF TIME STEP   54, STRESS PERIOD    3

 DRAWDOWN WILL BE SAVED ON UNIT   52 AT END OF TIME STEP   54, STRESS PERIOD    3
1
  VOLUMETRIC BUDGET FOR ENTIRE MODEL AT END OF TIME STEP   54, STRESS PERIOD   3
  ------------------------------------------------------------------------------

     CUMULATIVE VOLUMES      L**3       RATES FOR THIS TIME STEP      L**3/T
     ------------------                 ------------------------

           IN:                                      IN:
           ---                                      ---
             STORAGE =           0.0000               STORAGE =           0.0000
       CONSTANT HEAD =           0.0000         CONSTANT HEAD =           0.0000
               WELLS =           0.0000                 WELLS =           0.0000
     HEAD DEP BOUNDS =      127050.5156       HEAD DEP BOUNDS =         749.5200

            TOTAL IN =      127050.5156              TOTAL IN =         749.5200

          OUT:                                     OUT:
          ----                                     ----
             STORAGE =       15001.0791               STORAGE =           0.0000
       CONSTANT HEAD =           0.0000         CONSTANT HEAD =           0.0000
               WELLS =           0.0000                 WELLS =           0.0000
     HEAD DEP BOUNDS =      112056.9844       HEAD DEP BOUNDS =         749.5873

           TOTAL OUT =      127058.0625             TOTAL OUT =         749.5873

            IN - OUT =          -7.5469              IN - OUT =      -6.7383E-02

 PERCENT DISCREPANCY =          -0.01     PERCENT DISCREPANCY =          -0.01






         TIME SUMMARY AT END OF TIME STEP   54 IN STRESS PERIOD    3
                    SECONDS     MINUTES      HOURS       DAYS        YEARS
                    -----------------------------------------------------------
   TIME STEP LENGTH  86400.      1440.0      24.000      1.0000     2.73785E-03
 STRESS PERIOD TIME 4.66560E+06  77760.      1296.0      54.000     0.14784    
         TOTAL TIME 1.33920E+07 2.23200E+05  3720.0      155.00     0.42437    
1
 
 SOLVING FOR HEAD 

 OUTPUT CONTROL FOR STRESS PERIOD    3   TIME STEP   55
    SAVE HEAD FOR ALL LAYERS
    SAVE DRAWDOWN FOR ALL LAYERS
    SAVE BUDGET
    PRINT HEAD FOR ALL LAYERS
    PRINT BUDGET
 UBDSV1 SAVING "         STORAGE" ON UNIT  53 AT TIME STEP 55, STRESS PERIOD   3
 UBDSV2 SAVING "   CONSTANT HEAD" ON UNIT  53 AT TIME STEP 55, STRESS PERIOD   3
 UBDSV1 SAVING "FLOW RIGHT FACE " ON UNIT  53 AT TIME STEP 55, STRESS PERIOD   3
 UBDSV1 SAVING "FLOW FRONT FACE " ON UNIT  53 AT TIME STEP 55, STRESS PERIOD   3
 UBDSV1 SAVING "FLOW LOWER FACE " ON UNIT  53 AT TIME STEP 55, STRESS PERIOD   3
1
              HEAD IN LAYER   1 AT END OF TIME STEP  55 IN STRESS PERIOD    3
  ---------------------------------------------------------------------------

            1           2           3           4           5
 ............................................................
   1    9.998       7.499       5.000       2.502      2.9983E-03
   2    9.998       7.499       5.000       2.502      2.9983E-03
   3    9.998       7.499       5.000       2.502      2.9983E-03
   4    9.998       7.499       5.000       2.502      2.9983E-03
   5    9.998       7.499       5.000       2.502      2.9983E-03
1
              HEAD IN LAYER   2 AT END OF TIME STEP  55 IN STRESS PERIOD    3
  ---------------------------------------------------------------------------

            1           2           3           4           5
 ............................................................
   1    9.998       7.499       5.000       2.502      2.9983E-03
   2    9.998       7.499       5.000       2.502      2.9983E-03
   3    9.998       7.499       5.000       2.502      2.9983E-03
   4    9.998       7.499       5.000       2.502      2.9983E-03
   5    9.998       7.499       5.000       2.502      2.9983E-03
1
              HEAD IN LAYER   3 AT END OF TIME STEP  55 IN STRESS PERIOD    3
  ---------------------------------------------------------------------------

            1           2           3           4           5
 ............................................................
   1    9.998       7.499       5.000       2.502      2.9983E-03
   2    9.998       7.499       5.000       2.502      2.9983E-03
   3    9.998       7.499       5.000       2.502      2.9983E-03
   4    9.998       7.499       5.000       2.502      2.9983E-03
   5    9.998       7.499       5.000       2.502      2.9983E-03
1
              HEAD IN LAYER   4 AT END OF TIME STEP  55 IN STRESS PERIOD    3
  ---------------------------------------------------------------------------

            1           2           3           4           5
 ............................................................
   1    9.998       7.499       5.000       2.502      2.9983E-03
   2    9.998       7.499       5.000       2.502      2.9983E-03
   3    9.998       7.499       5.000       2.502      2.9983E-03
   4    9.998       7.499       5.000       2.502      2.9983E-03
   5    9.998       7.499       5.000       2.502      2.9983E-03
1
              HEAD IN LAYER   5 AT END OF TIME STEP  55 IN STRESS PERIOD    3
  ---------------------------------------------------------------------------

            1           2           3           4           5
 ............................................................
   1    9.998       7.499       5.000       2.502      2.9983E-03
   2    9.998       7.499       5.000       2.502      2.9983E-03
   3    9.998       7.499       5.000       2.502      2.9983E-03
   4    9.998       7.499       5.000       2.502      2.9983E-03
   5    9.998       7.499       5.000       2.502      2.9983E-03

 HEAD WILL BE SAVED ON UNIT   51 AT END OF TIME STEP   55, STRESS PERIOD    3

 DRAWDOWN WILL BE SAVED ON UNIT   52 AT END OF TIME STEP   55, STRESS PERIOD    3
1
  VOLUMETRIC BUDGET FOR ENTIRE MODEL AT END OF TIME STEP   55, STRESS PERIOD   3
  ------------------------------------------------------------------------------

     CUMULATIVE VOLUMES      L**3       RATES FOR THIS TIME STEP      L**3/T
     ------------------                 ------------------------

           IN:                                      IN:
           ---                                      ---
             STORAGE =           0.0000               STORAGE =           0.0000
       CONSTANT HEAD =           0.0000         CONSTANT HEAD =           0.0000
               WELLS =           0.0000                 WELLS =           0.0000
     HEAD DEP BOUNDS =      127800.0391       HEAD DEP BOUNDS =         749.5200

            TOTAL IN =      127800.0391              TOTAL IN =         749.5200

          OUT:                                     OUT:
          ----                                     ----
             STORAGE =       15001.0791               STORAGE =           0.0000
       CONSTANT HEAD =           0.0000         CONSTANT HEAD =           0.0000
               WELLS =           0.0000                 WELLS =           0.0000
     HEAD DEP BOUNDS =      112806.5703       HEAD DEP BOUNDS =         749.5873

           TOTAL OUT =      127807.6484             TOTAL OUT =         749.5873

            IN - OUT =          -7.6094              IN - OUT =      -6.7383E-02

 PERCENT DISCREPANCY =          -0.01     PERCENT DISCREPANCY =          -0.01






         TIME SUMMARY AT END OF TIME STEP   55 IN STRESS PERIOD    3
                    SECONDS     MINUTES      HOURS       DAYS        YEARS
                    -----------------------------------------------------------
   TIME STEP LENGTH  86400.      1440.0      24.000      1.0000     2.73785E-03
 STRESS PERIOD TIME 4.75200E+06  79200.      1320.0      55.000     0.15058    
         TOTAL TIME 1.34784E+07 2.24640E+05  3744.0      156.00     0.42710    
1
 
 SOLVING FOR HEAD 

 OUTPUT CONTROL FOR STRESS PERIOD    3   TIME STEP   56
    SAVE HEAD FOR ALL LAYERS
    SAVE DRAWDOWN FOR ALL LAYERS
    SAVE BUDGET
    PRINT HEAD FOR ALL LAYERS
    PRINT BUDGET
 UBDSV1 SAVING "         STORAGE" ON UNIT  53 AT TIME STEP 56, STRESS PERIOD   3
 UBDSV2 SAVING "   CONSTANT HEAD" ON UNIT  53 AT TIME STEP 56, STRESS PERIOD   3
 UBDSV1 SAVING "FLOW RIGHT FACE " ON UNIT  53 AT TIME STEP 56, STRESS PERIOD   3
 UBDSV1 SAVING "FLOW FRONT FACE " ON UNIT  53 AT TIME STEP 56, STRESS PERIOD   3
 UBDSV1 SAVING "FLOW LOWER FACE " ON UNIT  53 AT TIME STEP 56, STRESS PERIOD   3
1
              HEAD IN LAYER   1 AT END OF TIME STEP  56 IN STRESS PERIOD    3
  ---------------------------------------------------------------------------

            1           2           3           4           5
 ............................................................
   1    9.998       7.499       5.000       2.502      2.9983E-03
   2    9.998       7.499       5.000       2.502      2.9983E-03
   3    9.998       7.499       5.000       2.502      2.9983E-03
   4    9.998       7.499       5.000       2.502      2.9983E-03
   5    9.998       7.499       5.000       2.502      2.9983E-03
1
              HEAD IN LAYER   2 AT END OF TIME STEP  56 IN STRESS PERIOD    3
  ---------------------------------------------------------------------------

            1           2           3           4           5
 ............................................................
   1    9.998       7.499       5.000       2.502      2.9983E-03
   2    9.998       7.499       5.000       2.502      2.9983E-03
   3    9.998       7.499       5.000       2.502      2.9983E-03
   4    9.998       7.499       5.000       2.502      2.9983E-03
   5    9.998       7.499       5.000       2.502      2.9983E-03
1
              HEAD IN LAYER   3 AT END OF TIME STEP  56 IN STRESS PERIOD    3
  ---------------------------------------------------------------------------

            1           2           3           4           5
 ............................................................
   1    9.998       7.499       5.000       2.502      2.9983E-03
   2    9.998       7.499       5.000       2.502      2.9983E-03
   3    9.998       7.499       5.000       2.502      2.9983E-03
   4    9.998       7.499       5.000       2.502      2.9983E-03
   5    9.998       7.499       5.000       2.502      2.9983E-03
1
              HEAD IN LAYER   4 AT END OF TIME STEP  56 IN STRESS PERIOD    3
  ---------------------------------------------------------------------------

            1           2           3           4           5
 ............................................................
   1    9.998       7.499       5.000       2.502      2.9983E-03
   2    9.998       7.499       5.000       2.502      2.9983E-03
   3    9.998       7.499       5.000       2.502      2.9983E-03
   4    9.998       7.499       5.000       2.502      2.9983E-03
   5    9.998       7.499       5.000       2.502      2.9983E-03
1
              HEAD IN LAYER   5 AT END OF TIME STEP  56 IN STRESS PERIOD    3
  ---------------------------------------------------------------------------

            1           2           3           4           5
 ............................................................
   1    9.998       7.499       5.000       2.502      2.9983E-03
   2    9.998       7.499       5.000       2.502      2.9983E-03
   3    9.998       7.499       5.000       2.502      2.9983E-03
   4    9.998       7.499       5.000       2.502      2.9983E-03
   5    9.998       7.499       5.000       2.502      2.9983E-03

 HEAD WILL BE SAVED ON UNIT   51 AT END OF TIME STEP   56, STRESS PERIOD    3

 DRAWDOWN WILL BE SAVED ON UNIT   52 AT END OF TIME STEP   56, STRESS PERIOD    3
1
  VOLUMETRIC BUDGET FOR ENTIRE MODEL AT END OF TIME STEP   56, STRESS PERIOD   3
  ------------------------------------------------------------------------------

     CUMULATIVE VOLUMES      L**3       RATES FOR THIS TIME STEP      L**3/T
     ------------------                 ------------------------

           IN:                                      IN:
           ---                                      ---
             STORAGE =           0.0000               STORAGE =           0.0000
       CONSTANT HEAD =           0.0000         CONSTANT HEAD =           0.0000
               WELLS =           0.0000                 WELLS =           0.0000
     HEAD DEP BOUNDS =      128549.5625       HEAD DEP BOUNDS =         749.5200

            TOTAL IN =      128549.5625              TOTAL IN =         749.5200

          OUT:                                     OUT:
          ----                                     ----
             STORAGE =       15001.0791               STORAGE =           0.0000
       CONSTANT HEAD =           0.0000         CONSTANT HEAD =           0.0000
               WELLS =           0.0000                 WELLS =           0.0000
     HEAD DEP BOUNDS =      113556.1562       HEAD DEP BOUNDS =         749.5873

           TOTAL OUT =      128557.2344             TOTAL OUT =         749.5873

            IN - OUT =          -7.6719              IN - OUT =      -6.7383E-02

 PERCENT DISCREPANCY =          -0.01     PERCENT DISCREPANCY =          -0.01






         TIME SUMMARY AT END OF TIME STEP   56 IN STRESS PERIOD    3
                    SECONDS     MINUTES      HOURS       DAYS        YEARS
                    -----------------------------------------------------------
   TIME STEP LENGTH  86400.      1440.0      24.000      1.0000     2.73785E-03
 STRESS PERIOD TIME 4.83840E+06  80640.      1344.0      56.000     0.15332    
         TOTAL TIME 1.35648E+07 2.26080E+05  3768.0      157.00     0.42984    
1
 
 SOLVING FOR HEAD 

 OUTPUT CONTROL FOR STRESS PERIOD    3   TIME STEP   57
    SAVE HEAD FOR ALL LAYERS
    SAVE DRAWDOWN FOR ALL LAYERS
    SAVE BUDGET
    PRINT HEAD FOR ALL LAYERS
    PRINT BUDGET
 UBDSV1 SAVING "         STORAGE" ON UNIT  53 AT TIME STEP 57, STRESS PERIOD   3
 UBDSV2 SAVING "   CONSTANT HEAD" ON UNIT  53 AT TIME STEP 57, STRESS PERIOD   3
 UBDSV1 SAVING "FLOW RIGHT FACE " ON UNIT  53 AT TIME STEP 57, STRESS PERIOD   3
 UBDSV1 SAVING "FLOW FRONT FACE " ON UNIT  53 AT TIME STEP 57, STRESS PERIOD   3
 UBDSV1 SAVING "FLOW LOWER FACE " ON UNIT  53 AT TIME STEP 57, STRESS PERIOD   3
1
              HEAD IN LAYER   1 AT END OF TIME STEP  57 IN STRESS PERIOD    3
  ---------------------------------------------------------------------------

            1           2           3           4           5
 ............................................................
   1    9.998       7.499       5.000       2.502      2.9983E-03
   2    9.998       7.499       5.000       2.502      2.9983E-03
   3    9.998       7.499       5.000       2.502      2.9983E-03
   4    9.998       7.499       5.000       2.502      2.9983E-03
   5    9.998       7.499       5.000       2.502      2.9983E-03
1
              HEAD IN LAYER   2 AT END OF TIME STEP  57 IN STRESS PERIOD    3
  ---------------------------------------------------------------------------

            1           2           3           4           5
 ............................................................
   1    9.998       7.499       5.000       2.502      2.9983E-03
   2    9.998       7.499       5.000       2.502      2.9983E-03
   3    9.998       7.499       5.000       2.502      2.9983E-03
   4    9.998       7.499       5.000       2.502      2.9983E-03
   5    9.998       7.499       5.000       2.502      2.9983E-03
1
              HEAD IN LAYER   3 AT END OF TIME STEP  57 IN STRESS PERIOD    3
  ---------------------------------------------------------------------------

            1           2           3           4           5
 ............................................................
   1    9.998       7.499       5.000       2.502      2.9983E-03
   2    9.998       7.499       5.000       2.502      2.9983E-03
   3    9.998       7.499       5.000       2.502      2.9983E-03
   4    9.998       7.499       5.000       2.502      2.9983E-03
   5    9.998       7.499       5.000       2.502      2.9983E-03
1
              HEAD IN LAYER   4 AT END OF TIME STEP  57 IN STRESS PERIOD    3
  ---------------------------------------------------------------------------

            1           2           3           4           5
 ............................................................
   1    9.998       7.499       5.000       2.502      2.9983E-03
   2    9.998       7.499       5.000       2.502      2.9983E-03
   3    9.998       7.499       5.000       2.502      2.9983E-03
   4    9.998       7.499       5.000       2.502      2.9983E-03
   5    9.998       7.499       5.000       2.502      2.9983E-03
1
              HEAD IN LAYER   5 AT END OF TIME STEP  57 IN STRESS PERIOD    3
  ---------------------------------------------------------------------------

            1           2           3           4           5
 ............................................................
   1    9.998       7.499       5.000       2.502      2.9983E-03
   2    9.998       7.499       5.000       2.502      2.9983E-03
   3    9.998       7.499       5.000       2.502      2.9983E-03
   4    9.998       7.499       5.000       2.502      2.9983E-03
   5    9.998       7.499       5.000       2.502      2.9983E-03

 HEAD WILL BE SAVED ON UNIT   51 AT END OF TIME STEP   57, STRESS PERIOD    3

 DRAWDOWN WILL BE SAVED ON UNIT   52 AT END OF TIME STEP   57, STRESS PERIOD    3
1
  VOLUMETRIC BUDGET FOR ENTIRE MODEL AT END OF TIME STEP   57, STRESS PERIOD   3
  ------------------------------------------------------------------------------

     CUMULATIVE VOLUMES      L**3       RATES FOR THIS TIME STEP      L**3/T
     ------------------                 ------------------------

           IN:                                      IN:
           ---                                      ---
             STORAGE =           0.0000               STORAGE =           0.0000
       CONSTANT HEAD =           0.0000         CONSTANT HEAD =           0.0000
               WELLS =           0.0000                 WELLS =           0.0000
     HEAD DEP BOUNDS =      129299.0859       HEAD DEP BOUNDS =         749.5200

            TOTAL IN =      129299.0859              TOTAL IN =         749.5200

          OUT:                                     OUT:
          ----                                     ----
             STORAGE =       15001.0791               STORAGE =           0.0000
       CONSTANT HEAD =           0.0000         CONSTANT HEAD =           0.0000
               WELLS =           0.0000                 WELLS =           0.0000
     HEAD DEP BOUNDS =      114305.7422       HEAD DEP BOUNDS =         749.5873

           TOTAL OUT =      129306.8203             TOTAL OUT =         749.5873

            IN - OUT =          -7.7344              IN - OUT =      -6.7383E-02

 PERCENT DISCREPANCY =          -0.01     PERCENT DISCREPANCY =          -0.01






         TIME SUMMARY AT END OF TIME STEP   57 IN STRESS PERIOD    3
                    SECONDS     MINUTES      HOURS       DAYS        YEARS
                    -----------------------------------------------------------
   TIME STEP LENGTH  86400.      1440.0      24.000      1.0000     2.73785E-03
 STRESS PERIOD TIME 4.92480E+06  82080.      1368.0      57.000     0.15606    
         TOTAL TIME 1.36512E+07 2.27520E+05  3792.0      158.00     0.43258    
1
 
 SOLVING FOR HEAD 

 OUTPUT CONTROL FOR STRESS PERIOD    3   TIME STEP   58
    SAVE HEAD FOR ALL LAYERS
    SAVE DRAWDOWN FOR ALL LAYERS
    SAVE BUDGET
    PRINT HEAD FOR ALL LAYERS
    PRINT BUDGET
 UBDSV1 SAVING "         STORAGE" ON UNIT  53 AT TIME STEP 58, STRESS PERIOD   3
 UBDSV2 SAVING "   CONSTANT HEAD" ON UNIT  53 AT TIME STEP 58, STRESS PERIOD   3
 UBDSV1 SAVING "FLOW RIGHT FACE " ON UNIT  53 AT TIME STEP 58, STRESS PERIOD   3
 UBDSV1 SAVING "FLOW FRONT FACE " ON UNIT  53 AT TIME STEP 58, STRESS PERIOD   3
 UBDSV1 SAVING "FLOW LOWER FACE " ON UNIT  53 AT TIME STEP 58, STRESS PERIOD   3
1
              HEAD IN LAYER   1 AT END OF TIME STEP  58 IN STRESS PERIOD    3
  ---------------------------------------------------------------------------

            1           2           3           4           5
 ............................................................
   1    9.998       7.499       5.000       2.502      2.9983E-03
   2    9.998       7.499       5.000       2.502      2.9983E-03
   3    9.998       7.499       5.000       2.502      2.9983E-03
   4    9.998       7.499       5.000       2.502      2.9983E-03
   5    9.998       7.499       5.000       2.502      2.9983E-03
1
              HEAD IN LAYER   2 AT END OF TIME STEP  58 IN STRESS PERIOD    3
  ---------------------------------------------------------------------------

            1           2           3           4           5
 ............................................................
   1    9.998       7.499       5.000       2.502      2.9983E-03
   2    9.998       7.499       5.000       2.502      2.9983E-03
   3    9.998       7.499       5.000       2.502      2.9983E-03
   4    9.998       7.499       5.000       2.502      2.9983E-03
   5    9.998       7.499       5.000       2.502      2.9983E-03
1
              HEAD IN LAYER   3 AT END OF TIME STEP  58 IN STRESS PERIOD    3
  ---------------------------------------------------------------------------

            1           2           3           4           5
 ............................................................
   1    9.998       7.499       5.000       2.502      2.9983E-03
   2    9.998       7.499       5.000       2.502      2.9983E-03
   3    9.998       7.499       5.000       2.502      2.9983E-03
   4    9.998       7.499       5.000       2.502      2.9983E-03
   5    9.998       7.499       5.000       2.502      2.9983E-03
1
              HEAD IN LAYER   4 AT END OF TIME STEP  58 IN STRESS PERIOD    3
  ---------------------------------------------------------------------------

            1           2           3           4           5
 ............................................................
   1    9.998       7.499       5.000       2.502      2.9983E-03
   2    9.998       7.499       5.000       2.502      2.9983E-03
   3    9.998       7.499       5.000       2.502      2.9983E-03
   4    9.998       7.499       5.000       2.502      2.9983E-03
   5    9.998       7.499       5.000       2.502      2.9983E-03
1
              HEAD IN LAYER   5 AT END OF TIME STEP  58 IN STRESS PERIOD    3
  ---------------------------------------------------------------------------

            1           2           3           4           5
 ............................................................
   1    9.998       7.499       5.000       2.502      2.9983E-03
   2    9.998       7.499       5.000       2.502      2.9983E-03
   3    9.998       7.499       5.000       2.502      2.9983E-03
   4    9.998       7.499       5.000       2.502      2.9983E-03
   5    9.998       7.499       5.000       2.502      2.9983E-03

 HEAD WILL BE SAVED ON UNIT   51 AT END OF TIME STEP   58, STRESS PERIOD    3

 DRAWDOWN WILL BE SAVED ON UNIT   52 AT END OF TIME STEP   58, STRESS PERIOD    3
1
  VOLUMETRIC BUDGET FOR ENTIRE MODEL AT END OF TIME STEP   58, STRESS PERIOD   3
  ------------------------------------------------------------------------------

     CUMULATIVE VOLUMES      L**3       RATES FOR THIS TIME STEP      L**3/T
     ------------------                 ------------------------

           IN:                                      IN:
           ---                                      ---
             STORAGE =           0.0000               STORAGE =           0.0000
       CONSTANT HEAD =           0.0000         CONSTANT HEAD =           0.0000
               WELLS =           0.0000                 WELLS =           0.0000
     HEAD DEP BOUNDS =      130048.6094       HEAD DEP BOUNDS =         749.5200

            TOTAL IN =      130048.6094              TOTAL IN =         749.5200

          OUT:                                     OUT:
          ----                                     ----
             STORAGE =       15001.0791               STORAGE =           0.0000
       CONSTANT HEAD =           0.0000         CONSTANT HEAD =           0.0000
               WELLS =           0.0000                 WELLS =           0.0000
     HEAD DEP BOUNDS =      115055.3281       HEAD DEP BOUNDS =         749.5873

           TOTAL OUT =      130056.4062             TOTAL OUT =         749.5873

            IN - OUT =          -7.7969              IN - OUT =      -6.7383E-02

 PERCENT DISCREPANCY =          -0.01     PERCENT DISCREPANCY =          -0.01






         TIME SUMMARY AT END OF TIME STEP   58 IN STRESS PERIOD    3
                    SECONDS     MINUTES      HOURS       DAYS        YEARS
                    -----------------------------------------------------------
   TIME STEP LENGTH  86400.      1440.0      24.000      1.0000     2.73785E-03
 STRESS PERIOD TIME 5.01120E+06  83520.      1392.0      58.000     0.15880    
         TOTAL TIME 1.37376E+07 2.28960E+05  3816.0      159.00     0.43532    
1
 
 SOLVING FOR HEAD 

 OUTPUT CONTROL FOR STRESS PERIOD    3   TIME STEP   59
    SAVE HEAD FOR ALL LAYERS
    SAVE DRAWDOWN FOR ALL LAYERS
    SAVE BUDGET
    PRINT HEAD FOR ALL LAYERS
    PRINT BUDGET
 UBDSV1 SAVING "         STORAGE" ON UNIT  53 AT TIME STEP 59, STRESS PERIOD   3
 UBDSV2 SAVING "   CONSTANT HEAD" ON UNIT  53 AT TIME STEP 59, STRESS PERIOD   3
 UBDSV1 SAVING "FLOW RIGHT FACE " ON UNIT  53 AT TIME STEP 59, STRESS PERIOD   3
 UBDSV1 SAVING "FLOW FRONT FACE " ON UNIT  53 AT TIME STEP 59, STRESS PERIOD   3
 UBDSV1 SAVING "FLOW LOWER FACE " ON UNIT  53 AT TIME STEP 59, STRESS PERIOD   3
1
              HEAD IN LAYER   1 AT END OF TIME STEP  59 IN STRESS PERIOD    3
  ---------------------------------------------------------------------------

            1           2           3           4           5
 ............................................................
   1    9.998       7.499       5.000       2.502      2.9983E-03
   2    9.998       7.499       5.000       2.502      2.9983E-03
   3    9.998       7.499       5.000       2.502      2.9983E-03
   4    9.998       7.499       5.000       2.502      2.9983E-03
   5    9.998       7.499       5.000       2.502      2.9983E-03
1
              HEAD IN LAYER   2 AT END OF TIME STEP  59 IN STRESS PERIOD    3
  ---------------------------------------------------------------------------

            1           2           3           4           5
 ............................................................
   1    9.998       7.499       5.000       2.502      2.9983E-03
   2    9.998       7.499       5.000       2.502      2.9983E-03
   3    9.998       7.499       5.000       2.502      2.9983E-03
   4    9.998       7.499       5.000       2.502      2.9983E-03
   5    9.998       7.499       5.000       2.502      2.9983E-03
1
              HEAD IN LAYER   3 AT END OF TIME STEP  59 IN STRESS PERIOD    3
  ---------------------------------------------------------------------------

            1           2           3           4           5
 ............................................................
   1    9.998       7.499       5.000       2.502      2.9983E-03
   2    9.998       7.499       5.000       2.502      2.9983E-03
   3    9.998       7.499       5.000       2.502      2.9983E-03
   4    9.998       7.499       5.000       2.502      2.9983E-03
   5    9.998       7.499       5.000       2.502      2.9983E-03
1
              HEAD IN LAYER   4 AT END OF TIME STEP  59 IN STRESS PERIOD    3
  ---------------------------------------------------------------------------

            1           2           3           4           5
 ............................................................
   1    9.998       7.499       5.000       2.502      2.9983E-03
   2    9.998       7.499       5.000       2.502      2.9983E-03
   3    9.998       7.499       5.000       2.502      2.9983E-03
   4    9.998       7.499       5.000       2.502      2.9983E-03
   5    9.998       7.499       5.000       2.502      2.9983E-03
1
              HEAD IN LAYER   5 AT END OF TIME STEP  59 IN STRESS PERIOD    3
  ---------------------------------------------------------------------------

            1           2           3           4           5
 ............................................................
   1    9.998       7.499       5.000       2.502      2.9983E-03
   2    9.998       7.499       5.000       2.502      2.9983E-03
   3    9.998       7.499       5.000       2.502      2.9983E-03
   4    9.998       7.499       5.000       2.502      2.9983E-03
   5    9.998       7.499       5.000       2.502      2.9983E-03

 HEAD WILL BE SAVED ON UNIT   51 AT END OF TIME STEP   59, STRESS PERIOD    3

 DRAWDOWN WILL BE SAVED ON UNIT   52 AT END OF TIME STEP   59, STRESS PERIOD    3
1
  VOLUMETRIC BUDGET FOR ENTIRE MODEL AT END OF TIME STEP   59, STRESS PERIOD   3
  ------------------------------------------------------------------------------

     CUMULATIVE VOLUMES      L**3       RATES FOR THIS TIME STEP      L**3/T
     ------------------                 ------------------------

           IN:                                      IN:
           ---                                      ---
             STORAGE =           0.0000               STORAGE =           0.0000
       CONSTANT HEAD =           0.0000         CONSTANT HEAD =           0.0000
               WELLS =           0.0000                 WELLS =           0.0000
     HEAD DEP BOUNDS =      130798.1328       HEAD DEP BOUNDS =         749.5200

            TOTAL IN =      130798.1328              TOTAL IN =         749.5200

          OUT:                                     OUT:
          ----                                     ----
             STORAGE =       15001.0791               STORAGE =           0.0000
       CONSTANT HEAD =           0.0000         CONSTANT HEAD =           0.0000
               WELLS =           0.0000                 WELLS =           0.0000
     HEAD DEP BOUNDS =      115804.9141       HEAD DEP BOUNDS =         749.5873

           TOTAL OUT =      130805.9922             TOTAL OUT =         749.5873

            IN - OUT =          -7.8594              IN - OUT =      -6.7383E-02

 PERCENT DISCREPANCY =          -0.01     PERCENT DISCREPANCY =          -0.01






         TIME SUMMARY AT END OF TIME STEP   59 IN STRESS PERIOD    3
                    SECONDS     MINUTES      HOURS       DAYS        YEARS
                    -----------------------------------------------------------
   TIME STEP LENGTH  86400.      1440.0      24.000      1.0000     2.73785E-03
 STRESS PERIOD TIME 5.09760E+06  84960.      1416.0      59.000     0.16153    
         TOTAL TIME 1.38240E+07 2.30400E+05  3840.0      160.00     0.43806    
1
 
 SOLVING FOR HEAD 

 OUTPUT CONTROL FOR STRESS PERIOD    3   TIME STEP   60
    SAVE HEAD FOR ALL LAYERS
    SAVE DRAWDOWN FOR ALL LAYERS
    SAVE BUDGET
    PRINT HEAD FOR ALL LAYERS
    PRINT BUDGET
 UBDSV1 SAVING "         STORAGE" ON UNIT  53 AT TIME STEP 60, STRESS PERIOD   3
 UBDSV2 SAVING "   CONSTANT HEAD" ON UNIT  53 AT TIME STEP 60, STRESS PERIOD   3
 UBDSV1 SAVING "FLOW RIGHT FACE " ON UNIT  53 AT TIME STEP 60, STRESS PERIOD   3
 UBDSV1 SAVING "FLOW FRONT FACE " ON UNIT  53 AT TIME STEP 60, STRESS PERIOD   3
 UBDSV1 SAVING "FLOW LOWER FACE " ON UNIT  53 AT TIME STEP 60, STRESS PERIOD   3
1
              HEAD IN LAYER   1 AT END OF TIME STEP  60 IN STRESS PERIOD    3
  ---------------------------------------------------------------------------

            1           2           3           4           5
 ............................................................
   1    9.998       7.499       5.000       2.502      2.9983E-03
   2    9.998       7.499       5.000       2.502      2.9983E-03
   3    9.998       7.499       5.000       2.502      2.9983E-03
   4    9.998       7.499       5.000       2.502      2.9983E-03
   5    9.998       7.499       5.000       2.502      2.9983E-03
1
              HEAD IN LAYER   2 AT END OF TIME STEP  60 IN STRESS PERIOD    3
  ---------------------------------------------------------------------------

            1           2           3           4           5
 ............................................................
   1    9.998       7.499       5.000       2.502      2.9983E-03
   2    9.998       7.499       5.000       2.502      2.9983E-03
   3    9.998       7.499       5.000       2.502      2.9983E-03
   4    9.998       7.499       5.000       2.502      2.9983E-03
   5    9.998       7.499       5.000       2.502      2.9983E-03
1
              HEAD IN LAYER   3 AT END OF TIME STEP  60 IN STRESS PERIOD    3
  ---------------------------------------------------------------------------

            1           2           3           4           5
 ............................................................
   1    9.998       7.499       5.000       2.502      2.9983E-03
   2    9.998       7.499       5.000       2.502      2.9983E-03
   3    9.998       7.499       5.000       2.502      2.9983E-03
   4    9.998       7.499       5.000       2.502      2.9983E-03
   5    9.998       7.499       5.000       2.502      2.9983E-03
1
              HEAD IN LAYER   4 AT END OF TIME STEP  60 IN STRESS PERIOD    3
  ---------------------------------------------------------------------------

            1           2           3           4           5
 ............................................................
   1    9.998       7.499       5.000       2.502      2.9983E-03
   2    9.998       7.499       5.000       2.502      2.9983E-03
   3    9.998       7.499       5.000       2.502      2.9983E-03
   4    9.998       7.499       5.000       2.502      2.9983E-03
   5    9.998       7.499       5.000       2.502      2.9983E-03
1
              HEAD IN LAYER   5 AT END OF TIME STEP  60 IN STRESS PERIOD    3
  ---------------------------------------------------------------------------

            1           2           3           4           5
 ............................................................
   1    9.998       7.499       5.000       2.502      2.9983E-03
   2    9.998       7.499       5.000       2.502      2.9983E-03
   3    9.998       7.499       5.000       2.502      2.9983E-03
   4    9.998       7.499       5.000       2.502      2.9983E-03
   5    9.998       7.499       5.000       2.502      2.9983E-03

 HEAD WILL BE SAVED ON UNIT   51 AT END OF TIME STEP   60, STRESS PERIOD    3

 DRAWDOWN WILL BE SAVED ON UNIT   52 AT END OF TIME STEP   60, STRESS PERIOD    3
1
  VOLUMETRIC BUDGET FOR ENTIRE MODEL AT END OF TIME STEP   60, STRESS PERIOD   3
  ------------------------------------------------------------------------------

     CUMULATIVE VOLUMES      L**3       RATES FOR THIS TIME STEP      L**3/T
     ------------------                 ------------------------

           IN:                                      IN:
           ---                                      ---
             STORAGE =           0.0000               STORAGE =           0.0000
       CONSTANT HEAD =           0.0000         CONSTANT HEAD =           0.0000
               WELLS =           0.0000                 WELLS =           0.0000
     HEAD DEP BOUNDS =      131547.6562       HEAD DEP BOUNDS =         749.5200

            TOTAL IN =      131547.6562              TOTAL IN =         749.5200

          OUT:                                     OUT:
          ----                                     ----
             STORAGE =       15001.0791               STORAGE =           0.0000
       CONSTANT HEAD =           0.0000         CONSTANT HEAD =           0.0000
               WELLS =           0.0000                 WELLS =           0.0000
     HEAD DEP BOUNDS =      116554.5000       HEAD DEP BOUNDS =         749.5873

           TOTAL OUT =      131555.5781             TOTAL OUT =         749.5873

            IN - OUT =          -7.9219              IN - OUT =      -6.7383E-02

 PERCENT DISCREPANCY =          -0.01     PERCENT DISCREPANCY =          -0.01






         TIME SUMMARY AT END OF TIME STEP   60 IN STRESS PERIOD    3
                    SECONDS     MINUTES      HOURS       DAYS        YEARS
                    -----------------------------------------------------------
   TIME STEP LENGTH  86400.      1440.0      24.000      1.0000     2.73785E-03
 STRESS PERIOD TIME 5.18400E+06  86400.      1440.0      60.000     0.16427    
         TOTAL TIME 1.39104E+07 2.31840E+05  3864.0      161.00     0.44079    
1
 
 SOLVING FOR HEAD 

 OUTPUT CONTROL FOR STRESS PERIOD    3   TIME STEP   61
    SAVE HEAD FOR ALL LAYERS
    SAVE DRAWDOWN FOR ALL LAYERS
    SAVE BUDGET
    PRINT HEAD FOR ALL LAYERS
    PRINT BUDGET
 UBDSV1 SAVING "         STORAGE" ON UNIT  53 AT TIME STEP 61, STRESS PERIOD   3
 UBDSV2 SAVING "   CONSTANT HEAD" ON UNIT  53 AT TIME STEP 61, STRESS PERIOD   3
 UBDSV1 SAVING "FLOW RIGHT FACE " ON UNIT  53 AT TIME STEP 61, STRESS PERIOD   3
 UBDSV1 SAVING "FLOW FRONT FACE " ON UNIT  53 AT TIME STEP 61, STRESS PERIOD   3
 UBDSV1 SAVING "FLOW LOWER FACE " ON UNIT  53 AT TIME STEP 61, STRESS PERIOD   3
1
              HEAD IN LAYER   1 AT END OF TIME STEP  61 IN STRESS PERIOD    3
  ---------------------------------------------------------------------------

            1           2           3           4           5
 ............................................................
   1    9.998       7.499       5.000       2.502      2.9983E-03
   2    9.998       7.499       5.000       2.502      2.9983E-03
   3    9.998       7.499       5.000       2.502      2.9983E-03
   4    9.998       7.499       5.000       2.502      2.9983E-03
   5    9.998       7.499       5.000       2.502      2.9983E-03
1
              HEAD IN LAYER   2 AT END OF TIME STEP  61 IN STRESS PERIOD    3
  ---------------------------------------------------------------------------

            1           2           3           4           5
 ............................................................
   1    9.998       7.499       5.000       2.502      2.9983E-03
   2    9.998       7.499       5.000       2.502      2.9983E-03
   3    9.998       7.499       5.000       2.502      2.9983E-03
   4    9.998       7.499       5.000       2.502      2.9983E-03
   5    9.998       7.499       5.000       2.502      2.9983E-03
1
              HEAD IN LAYER   3 AT END OF TIME STEP  61 IN STRESS PERIOD    3
  ---------------------------------------------------------------------------

            1           2           3           4           5
 ............................................................
   1    9.998       7.499       5.000       2.502      2.9983E-03
   2    9.998       7.499       5.000       2.502      2.9983E-03
   3    9.998       7.499       5.000       2.502      2.9983E-03
   4    9.998       7.499       5.000       2.502      2.9983E-03
   5    9.998       7.499       5.000       2.502      2.9983E-03
1
              HEAD IN LAYER   4 AT END OF TIME STEP  61 IN STRESS PERIOD    3
  ---------------------------------------------------------------------------

            1           2           3           4           5
 ............................................................
   1    9.998       7.499       5.000       2.502      2.9983E-03
   2    9.998       7.499       5.000       2.502      2.9983E-03
   3    9.998       7.499       5.000       2.502      2.9983E-03
   4    9.998       7.499       5.000       2.502      2.9983E-03
   5    9.998       7.499       5.000       2.502      2.9983E-03
1
              HEAD IN LAYER   5 AT END OF TIME STEP  61 IN STRESS PERIOD    3
  ---------------------------------------------------------------------------

            1           2           3           4           5
 ............................................................
   1    9.998       7.499       5.000       2.502      2.9983E-03
   2    9.998       7.499       5.000       2.502      2.9983E-03
   3    9.998       7.499       5.000       2.502      2.9983E-03
   4    9.998       7.499       5.000       2.502      2.9983E-03
   5    9.998       7.499       5.000       2.502      2.9983E-03

 HEAD WILL BE SAVED ON UNIT   51 AT END OF TIME STEP   61, STRESS PERIOD    3

 DRAWDOWN WILL BE SAVED ON UNIT   52 AT END OF TIME STEP   61, STRESS PERIOD    3
1
  VOLUMETRIC BUDGET FOR ENTIRE MODEL AT END OF TIME STEP   61, STRESS PERIOD   3
  ------------------------------------------------------------------------------

     CUMULATIVE VOLUMES      L**3       RATES FOR THIS TIME STEP      L**3/T
     ------------------                 ------------------------

           IN:                                      IN:
           ---                                      ---
             STORAGE =           0.0000               STORAGE =           0.0000
       CONSTANT HEAD =           0.0000         CONSTANT HEAD =           0.0000
               WELLS =           0.0000                 WELLS =           0.0000
     HEAD DEP BOUNDS =      132297.1719       HEAD DEP BOUNDS =         749.5200

            TOTAL IN =      132297.1719              TOTAL IN =         749.5200

          OUT:                                     OUT:
          ----                                     ----
             STORAGE =       15001.0791               STORAGE =           0.0000
       CONSTANT HEAD =           0.0000         CONSTANT HEAD =           0.0000
               WELLS =           0.0000                 WELLS =           0.0000
     HEAD DEP BOUNDS =      117304.0859       HEAD DEP BOUNDS =         749.5873

           TOTAL OUT =      132305.1719             TOTAL OUT =         749.5873

            IN - OUT =          -8.0000              IN - OUT =      -6.7383E-02

 PERCENT DISCREPANCY =          -0.01     PERCENT DISCREPANCY =          -0.01






         TIME SUMMARY AT END OF TIME STEP   61 IN STRESS PERIOD    3
                    SECONDS     MINUTES      HOURS       DAYS        YEARS
                    -----------------------------------------------------------
   TIME STEP LENGTH  86400.      1440.0      24.000      1.0000     2.73785E-03
 STRESS PERIOD TIME 5.27040E+06  87840.      1464.0      61.000     0.16701    
         TOTAL TIME 1.39968E+07 2.33280E+05  3888.0      162.00     0.44353    
1
 
 SOLVING FOR HEAD 

 OUTPUT CONTROL FOR STRESS PERIOD    3   TIME STEP   62
    SAVE HEAD FOR ALL LAYERS
    SAVE DRAWDOWN FOR ALL LAYERS
    SAVE BUDGET
    PRINT HEAD FOR ALL LAYERS
    PRINT BUDGET
 UBDSV1 SAVING "         STORAGE" ON UNIT  53 AT TIME STEP 62, STRESS PERIOD   3
 UBDSV2 SAVING "   CONSTANT HEAD" ON UNIT  53 AT TIME STEP 62, STRESS PERIOD   3
 UBDSV1 SAVING "FLOW RIGHT FACE " ON UNIT  53 AT TIME STEP 62, STRESS PERIOD   3
 UBDSV1 SAVING "FLOW FRONT FACE " ON UNIT  53 AT TIME STEP 62, STRESS PERIOD   3
 UBDSV1 SAVING "FLOW LOWER FACE " ON UNIT  53 AT TIME STEP 62, STRESS PERIOD   3
1
              HEAD IN LAYER   1 AT END OF TIME STEP  62 IN STRESS PERIOD    3
  ---------------------------------------------------------------------------

            1           2           3           4           5
 ............................................................
   1    9.998       7.499       5.000       2.502      2.9983E-03
   2    9.998       7.499       5.000       2.502      2.9983E-03
   3    9.998       7.499       5.000       2.502      2.9983E-03
   4    9.998       7.499       5.000       2.502      2.9983E-03
   5    9.998       7.499       5.000       2.502      2.9983E-03
1
              HEAD IN LAYER   2 AT END OF TIME STEP  62 IN STRESS PERIOD    3
  ---------------------------------------------------------------------------

            1           2           3           4           5
 ............................................................
   1    9.998       7.499       5.000       2.502      2.9983E-03
   2    9.998       7.499       5.000       2.502      2.9983E-03
   3    9.998       7.499       5.000       2.502      2.9983E-03
   4    9.998       7.499       5.000       2.502      2.9983E-03
   5    9.998       7.499       5.000       2.502      2.9983E-03
1
              HEAD IN LAYER   3 AT END OF TIME STEP  62 IN STRESS PERIOD    3
  ---------------------------------------------------------------------------

            1           2           3           4           5
 ............................................................
   1    9.998       7.499       5.000       2.502      2.9983E-03
   2    9.998       7.499       5.000       2.502      2.9983E-03
   3    9.998       7.499       5.000       2.502      2.9983E-03
   4    9.998       7.499       5.000       2.502      2.9983E-03
   5    9.998       7.499       5.000       2.502      2.9983E-03
1
              HEAD IN LAYER   4 AT END OF TIME STEP  62 IN STRESS PERIOD    3
  ---------------------------------------------------------------------------

            1           2           3           4           5
 ............................................................
   1    9.998       7.499       5.000       2.502      2.9983E-03
   2    9.998       7.499       5.000       2.502      2.9983E-03
   3    9.998       7.499       5.000       2.502      2.9983E-03
   4    9.998       7.499       5.000       2.502      2.9983E-03
   5    9.998       7.499       5.000       2.502      2.9983E-03
1
              HEAD IN LAYER   5 AT END OF TIME STEP  62 IN STRESS PERIOD    3
  ---------------------------------------------------------------------------

            1           2           3           4           5
 ............................................................
   1    9.998       7.499       5.000       2.502      2.9983E-03
   2    9.998       7.499       5.000       2.502      2.9983E-03
   3    9.998       7.499       5.000       2.502      2.9983E-03
   4    9.998       7.499       5.000       2.502      2.9983E-03
   5    9.998       7.499       5.000       2.502      2.9983E-03

 HEAD WILL BE SAVED ON UNIT   51 AT END OF TIME STEP   62, STRESS PERIOD    3

 DRAWDOWN WILL BE SAVED ON UNIT   52 AT END OF TIME STEP   62, STRESS PERIOD    3
1
  VOLUMETRIC BUDGET FOR ENTIRE MODEL AT END OF TIME STEP   62, STRESS PERIOD   3
  ------------------------------------------------------------------------------

     CUMULATIVE VOLUMES      L**3       RATES FOR THIS TIME STEP      L**3/T
     ------------------                 ------------------------

           IN:                                      IN:
           ---                                      ---
             STORAGE =           0.0000               STORAGE =           0.0000
       CONSTANT HEAD =           0.0000         CONSTANT HEAD =           0.0000
               WELLS =           0.0000                 WELLS =           0.0000
     HEAD DEP BOUNDS =      133046.6875       HEAD DEP BOUNDS =         749.5200

            TOTAL IN =      133046.6875              TOTAL IN =         749.5200

          OUT:                                     OUT:
          ----                                     ----
             STORAGE =       15001.0791               STORAGE =           0.0000
       CONSTANT HEAD =           0.0000         CONSTANT HEAD =           0.0000
               WELLS =           0.0000                 WELLS =           0.0000
     HEAD DEP BOUNDS =      118053.6719       HEAD DEP BOUNDS =         749.5873

           TOTAL OUT =      133054.7500             TOTAL OUT =         749.5873

            IN - OUT =          -8.0625              IN - OUT =      -6.7383E-02

 PERCENT DISCREPANCY =          -0.01     PERCENT DISCREPANCY =          -0.01






         TIME SUMMARY AT END OF TIME STEP   62 IN STRESS PERIOD    3
                    SECONDS     MINUTES      HOURS       DAYS        YEARS
                    -----------------------------------------------------------
   TIME STEP LENGTH  86400.      1440.0      24.000      1.0000     2.73785E-03
 STRESS PERIOD TIME 5.35680E+06  89280.      1488.0      62.000     0.16975    
         TOTAL TIME 1.40832E+07 2.34720E+05  3912.0      163.00     0.44627    
1
 
 SOLVING FOR HEAD 

 OUTPUT CONTROL FOR STRESS PERIOD    3   TIME STEP   63
    SAVE HEAD FOR ALL LAYERS
    SAVE DRAWDOWN FOR ALL LAYERS
    SAVE BUDGET
    PRINT HEAD FOR ALL LAYERS
    PRINT BUDGET
 UBDSV1 SAVING "         STORAGE" ON UNIT  53 AT TIME STEP 63, STRESS PERIOD   3
 UBDSV2 SAVING "   CONSTANT HEAD" ON UNIT  53 AT TIME STEP 63, STRESS PERIOD   3
 UBDSV1 SAVING "FLOW RIGHT FACE " ON UNIT  53 AT TIME STEP 63, STRESS PERIOD   3
 UBDSV1 SAVING "FLOW FRONT FACE " ON UNIT  53 AT TIME STEP 63, STRESS PERIOD   3
 UBDSV1 SAVING "FLOW LOWER FACE " ON UNIT  53 AT TIME STEP 63, STRESS PERIOD   3
1
              HEAD IN LAYER   1 AT END OF TIME STEP  63 IN STRESS PERIOD    3
  ---------------------------------------------------------------------------

            1           2           3           4           5
 ............................................................
   1    9.998       7.499       5.000       2.502      2.9983E-03
   2    9.998       7.499       5.000       2.502      2.9983E-03
   3    9.998       7.499       5.000       2.502      2.9983E-03
   4    9.998       7.499       5.000       2.502      2.9983E-03
   5    9.998       7.499       5.000       2.502      2.9983E-03
1
              HEAD IN LAYER   2 AT END OF TIME STEP  63 IN STRESS PERIOD    3
  ---------------------------------------------------------------------------

            1           2           3           4           5
 ............................................................
   1    9.998       7.499       5.000       2.502      2.9983E-03
   2    9.998       7.499       5.000       2.502      2.9983E-03
   3    9.998       7.499       5.000       2.502      2.9983E-03
   4    9.998       7.499       5.000       2.502      2.9983E-03
   5    9.998       7.499       5.000       2.502      2.9983E-03
1
              HEAD IN LAYER   3 AT END OF TIME STEP  63 IN STRESS PERIOD    3
  ---------------------------------------------------------------------------

            1           2           3           4           5
 ............................................................
   1    9.998       7.499       5.000       2.502      2.9983E-03
   2    9.998       7.499       5.000       2.502      2.9983E-03
   3    9.998       7.499       5.000       2.502      2.9983E-03
   4    9.998       7.499       5.000       2.502      2.9983E-03
   5    9.998       7.499       5.000       2.502      2.9983E-03
1
              HEAD IN LAYER   4 AT END OF TIME STEP  63 IN STRESS PERIOD    3
  ---------------------------------------------------------------------------

            1           2           3           4           5
 ............................................................
   1    9.998       7.499       5.000       2.502      2.9983E-03
   2    9.998       7.499       5.000       2.502      2.9983E-03
   3    9.998       7.499       5.000       2.502      2.9983E-03
   4    9.998       7.499       5.000       2.502      2.9983E-03
   5    9.998       7.499       5.000       2.502      2.9983E-03
1
              HEAD IN LAYER   5 AT END OF TIME STEP  63 IN STRESS PERIOD    3
  ---------------------------------------------------------------------------

            1           2           3           4           5
 ............................................................
   1    9.998       7.499       5.000       2.502      2.9983E-03
   2    9.998       7.499       5.000       2.502      2.9983E-03
   3    9.998       7.499       5.000       2.502      2.9983E-03
   4    9.998       7.499       5.000       2.502      2.9983E-03
   5    9.998       7.499       5.000       2.502      2.9983E-03

 HEAD WILL BE SAVED ON UNIT   51 AT END OF TIME STEP   63, STRESS PERIOD    3

 DRAWDOWN WILL BE SAVED ON UNIT   52 AT END OF TIME STEP   63, STRESS PERIOD    3
1
  VOLUMETRIC BUDGET FOR ENTIRE MODEL AT END OF TIME STEP   63, STRESS PERIOD   3
  ------------------------------------------------------------------------------

     CUMULATIVE VOLUMES      L**3       RATES FOR THIS TIME STEP      L**3/T
     ------------------                 ------------------------

           IN:                                      IN:
           ---                                      ---
             STORAGE =           0.0000               STORAGE =           0.0000
       CONSTANT HEAD =           0.0000         CONSTANT HEAD =           0.0000
               WELLS =           0.0000                 WELLS =           0.0000
     HEAD DEP BOUNDS =      133796.2031       HEAD DEP BOUNDS =         749.5200

            TOTAL IN =      133796.2031              TOTAL IN =         749.5200

          OUT:                                     OUT:
          ----                                     ----
             STORAGE =       15001.0791               STORAGE =           0.0000
       CONSTANT HEAD =           0.0000         CONSTANT HEAD =           0.0000
               WELLS =           0.0000                 WELLS =           0.0000
     HEAD DEP BOUNDS =      118803.2578       HEAD DEP BOUNDS =         749.5873

           TOTAL OUT =      133804.3438             TOTAL OUT =         749.5873

            IN - OUT =          -8.1406              IN - OUT =      -6.7383E-02

 PERCENT DISCREPANCY =          -0.01     PERCENT DISCREPANCY =          -0.01






         TIME SUMMARY AT END OF TIME STEP   63 IN STRESS PERIOD    3
                    SECONDS     MINUTES      HOURS       DAYS        YEARS
                    -----------------------------------------------------------
   TIME STEP LENGTH  86400.      1440.0      24.000      1.0000     2.73785E-03
 STRESS PERIOD TIME 5.44320E+06  90720.      1512.0      63.000     0.17248    
         TOTAL TIME 1.41696E+07 2.36160E+05  3936.0      164.00     0.44901    
1
 
 SOLVING FOR HEAD 

 OUTPUT CONTROL FOR STRESS PERIOD    3   TIME STEP   64
    SAVE HEAD FOR ALL LAYERS
    SAVE DRAWDOWN FOR ALL LAYERS
    SAVE BUDGET
    PRINT HEAD FOR ALL LAYERS
    PRINT BUDGET
 UBDSV1 SAVING "         STORAGE" ON UNIT  53 AT TIME STEP 64, STRESS PERIOD   3
 UBDSV2 SAVING "   CONSTANT HEAD" ON UNIT  53 AT TIME STEP 64, STRESS PERIOD   3
 UBDSV1 SAVING "FLOW RIGHT FACE " ON UNIT  53 AT TIME STEP 64, STRESS PERIOD   3
 UBDSV1 SAVING "FLOW FRONT FACE " ON UNIT  53 AT TIME STEP 64, STRESS PERIOD   3
 UBDSV1 SAVING "FLOW LOWER FACE " ON UNIT  53 AT TIME STEP 64, STRESS PERIOD   3
1
              HEAD IN LAYER   1 AT END OF TIME STEP  64 IN STRESS PERIOD    3
  ---------------------------------------------------------------------------

            1           2           3           4           5
 ............................................................
   1    9.998       7.499       5.000       2.502      2.9983E-03
   2    9.998       7.499       5.000       2.502      2.9983E-03
   3    9.998       7.499       5.000       2.502      2.9983E-03
   4    9.998       7.499       5.000       2.502      2.9983E-03
   5    9.998       7.499       5.000       2.502      2.9983E-03
1
              HEAD IN LAYER   2 AT END OF TIME STEP  64 IN STRESS PERIOD    3
  ---------------------------------------------------------------------------

            1           2           3           4           5
 ............................................................
   1    9.998       7.499       5.000       2.502      2.9983E-03
   2    9.998       7.499       5.000       2.502      2.9983E-03
   3    9.998       7.499       5.000       2.502      2.9983E-03
   4    9.998       7.499       5.000       2.502      2.9983E-03
   5    9.998       7.499       5.000       2.502      2.9983E-03
1
              HEAD IN LAYER   3 AT END OF TIME STEP  64 IN STRESS PERIOD    3
  ---------------------------------------------------------------------------

            1           2           3           4           5
 ............................................................
   1    9.998       7.499       5.000       2.502      2.9983E-03
   2    9.998       7.499       5.000       2.502      2.9983E-03
   3    9.998       7.499       5.000       2.502      2.9983E-03
   4    9.998       7.499       5.000       2.502      2.9983E-03
   5    9.998       7.499       5.000       2.502      2.9983E-03
1
              HEAD IN LAYER   4 AT END OF TIME STEP  64 IN STRESS PERIOD    3
  ---------------------------------------------------------------------------

            1           2           3           4           5
 ............................................................
   1    9.998       7.499       5.000       2.502      2.9983E-03
   2    9.998       7.499       5.000       2.502      2.9983E-03
   3    9.998       7.499       5.000       2.502      2.9983E-03
   4    9.998       7.499       5.000       2.502      2.9983E-03
   5    9.998       7.499       5.000       2.502      2.9983E-03
1
              HEAD IN LAYER   5 AT END OF TIME STEP  64 IN STRESS PERIOD    3
  ---------------------------------------------------------------------------

            1           2           3           4           5
 ............................................................
   1    9.998       7.499       5.000       2.502      2.9983E-03
   2    9.998       7.499       5.000       2.502      2.9983E-03
   3    9.998       7.499       5.000       2.502      2.9983E-03
   4    9.998       7.499       5.000       2.502      2.9983E-03
   5    9.998       7.499       5.000       2.502      2.9983E-03

 HEAD WILL BE SAVED ON UNIT   51 AT END OF TIME STEP   64, STRESS PERIOD    3

 DRAWDOWN WILL BE SAVED ON UNIT   52 AT END OF TIME STEP   64, STRESS PERIOD    3
1
  VOLUMETRIC BUDGET FOR ENTIRE MODEL AT END OF TIME STEP   64, STRESS PERIOD   3
  ------------------------------------------------------------------------------

     CUMULATIVE VOLUMES      L**3       RATES FOR THIS TIME STEP      L**3/T
     ------------------                 ------------------------

           IN:                                      IN:
           ---                                      ---
             STORAGE =           0.0000               STORAGE =           0.0000
       CONSTANT HEAD =           0.0000         CONSTANT HEAD =           0.0000
               WELLS =           0.0000                 WELLS =           0.0000
     HEAD DEP BOUNDS =      134545.7188       HEAD DEP BOUNDS =         749.5200

            TOTAL IN =      134545.7188              TOTAL IN =         749.5200

          OUT:                                     OUT:
          ----                                     ----
             STORAGE =       15001.0791               STORAGE =           0.0000
       CONSTANT HEAD =           0.0000         CONSTANT HEAD =           0.0000
               WELLS =           0.0000                 WELLS =           0.0000
     HEAD DEP BOUNDS =      119552.8438       HEAD DEP BOUNDS =         749.5873

           TOTAL OUT =      134553.9219             TOTAL OUT =         749.5873

            IN - OUT =          -8.2031              IN - OUT =      -6.7383E-02

 PERCENT DISCREPANCY =          -0.01     PERCENT DISCREPANCY =          -0.01






         TIME SUMMARY AT END OF TIME STEP   64 IN STRESS PERIOD    3
                    SECONDS     MINUTES      HOURS       DAYS        YEARS
                    -----------------------------------------------------------
   TIME STEP LENGTH  86400.      1440.0      24.000      1.0000     2.73785E-03
 STRESS PERIOD TIME 5.52960E+06  92160.      1536.0      64.000     0.17522    
         TOTAL TIME 1.42560E+07 2.37600E+05  3960.0      165.00     0.45175    
1
 
 SOLVING FOR HEAD 

 OUTPUT CONTROL FOR STRESS PERIOD    3   TIME STEP   65
    SAVE HEAD FOR ALL LAYERS
    SAVE DRAWDOWN FOR ALL LAYERS
    SAVE BUDGET
    PRINT HEAD FOR ALL LAYERS
    PRINT BUDGET
 UBDSV1 SAVING "         STORAGE" ON UNIT  53 AT TIME STEP 65, STRESS PERIOD   3
 UBDSV2 SAVING "   CONSTANT HEAD" ON UNIT  53 AT TIME STEP 65, STRESS PERIOD   3
 UBDSV1 SAVING "FLOW RIGHT FACE " ON UNIT  53 AT TIME STEP 65, STRESS PERIOD   3
 UBDSV1 SAVING "FLOW FRONT FACE " ON UNIT  53 AT TIME STEP 65, STRESS PERIOD   3
 UBDSV1 SAVING "FLOW LOWER FACE " ON UNIT  53 AT TIME STEP 65, STRESS PERIOD   3
1
              HEAD IN LAYER   1 AT END OF TIME STEP  65 IN STRESS PERIOD    3
  ---------------------------------------------------------------------------

            1           2           3           4           5
 ............................................................
   1    9.998       7.499       5.000       2.502      2.9983E-03
   2    9.998       7.499       5.000       2.502      2.9983E-03
   3    9.998       7.499       5.000       2.502      2.9983E-03
   4    9.998       7.499       5.000       2.502      2.9983E-03
   5    9.998       7.499       5.000       2.502      2.9983E-03
1
              HEAD IN LAYER   2 AT END OF TIME STEP  65 IN STRESS PERIOD    3
  ---------------------------------------------------------------------------

            1           2           3           4           5
 ............................................................
   1    9.998       7.499       5.000       2.502      2.9983E-03
   2    9.998       7.499       5.000       2.502      2.9983E-03
   3    9.998       7.499       5.000       2.502      2.9983E-03
   4    9.998       7.499       5.000       2.502      2.9983E-03
   5    9.998       7.499       5.000       2.502      2.9983E-03
1
              HEAD IN LAYER   3 AT END OF TIME STEP  65 IN STRESS PERIOD    3
  ---------------------------------------------------------------------------

            1           2           3           4           5
 ............................................................
   1    9.998       7.499       5.000       2.502      2.9983E-03
   2    9.998       7.499       5.000       2.502      2.9983E-03
   3    9.998       7.499       5.000       2.502      2.9983E-03
   4    9.998       7.499       5.000       2.502      2.9983E-03
   5    9.998       7.499       5.000       2.502      2.9983E-03
1
              HEAD IN LAYER   4 AT END OF TIME STEP  65 IN STRESS PERIOD    3
  ---------------------------------------------------------------------------

            1           2           3           4           5
 ............................................................
   1    9.998       7.499       5.000       2.502      2.9983E-03
   2    9.998       7.499       5.000       2.502      2.9983E-03
   3    9.998       7.499       5.000       2.502      2.9983E-03
   4    9.998       7.499       5.000       2.502      2.9983E-03
   5    9.998       7.499       5.000       2.502      2.9983E-03
1
              HEAD IN LAYER   5 AT END OF TIME STEP  65 IN STRESS PERIOD    3
  ---------------------------------------------------------------------------

            1           2           3           4           5
 ............................................................
   1    9.998       7.499       5.000       2.502      2.9983E-03
   2    9.998       7.499       5.000       2.502      2.9983E-03
   3    9.998       7.499       5.000       2.502      2.9983E-03
   4    9.998       7.499       5.000       2.502      2.9983E-03
   5    9.998       7.499       5.000       2.502      2.9983E-03

 HEAD WILL BE SAVED ON UNIT   51 AT END OF TIME STEP   65, STRESS PERIOD    3

 DRAWDOWN WILL BE SAVED ON UNIT   52 AT END OF TIME STEP   65, STRESS PERIOD    3
1
  VOLUMETRIC BUDGET FOR ENTIRE MODEL AT END OF TIME STEP   65, STRESS PERIOD   3
  ------------------------------------------------------------------------------

     CUMULATIVE VOLUMES      L**3       RATES FOR THIS TIME STEP      L**3/T
     ------------------                 ------------------------

           IN:                                      IN:
           ---                                      ---
             STORAGE =           0.0000               STORAGE =           0.0000
       CONSTANT HEAD =           0.0000         CONSTANT HEAD =           0.0000
               WELLS =           0.0000                 WELLS =           0.0000
     HEAD DEP BOUNDS =      135295.2344       HEAD DEP BOUNDS =         749.5200

            TOTAL IN =      135295.2344              TOTAL IN =         749.5200

          OUT:                                     OUT:
          ----                                     ----
             STORAGE =       15001.0791               STORAGE =           0.0000
       CONSTANT HEAD =           0.0000         CONSTANT HEAD =           0.0000
               WELLS =           0.0000                 WELLS =           0.0000
     HEAD DEP BOUNDS =      120302.4297       HEAD DEP BOUNDS =         749.5873

           TOTAL OUT =      135303.5156             TOTAL OUT =         749.5873

            IN - OUT =          -8.2812              IN - OUT =      -6.7383E-02

 PERCENT DISCREPANCY =          -0.01     PERCENT DISCREPANCY =          -0.01






         TIME SUMMARY AT END OF TIME STEP   65 IN STRESS PERIOD    3
                    SECONDS     MINUTES      HOURS       DAYS        YEARS
                    -----------------------------------------------------------
   TIME STEP LENGTH  86400.      1440.0      24.000      1.0000     2.73785E-03
 STRESS PERIOD TIME 5.61600E+06  93600.      1560.0      65.000     0.17796    
         TOTAL TIME 1.43424E+07 2.39040E+05  3984.0      166.00     0.45448    
1
 
 SOLVING FOR HEAD 

 OUTPUT CONTROL FOR STRESS PERIOD    3   TIME STEP   66
    SAVE HEAD FOR ALL LAYERS
    SAVE DRAWDOWN FOR ALL LAYERS
    SAVE BUDGET
    PRINT HEAD FOR ALL LAYERS
    PRINT BUDGET
 UBDSV1 SAVING "         STORAGE" ON UNIT  53 AT TIME STEP 66, STRESS PERIOD   3
 UBDSV2 SAVING "   CONSTANT HEAD" ON UNIT  53 AT TIME STEP 66, STRESS PERIOD   3
 UBDSV1 SAVING "FLOW RIGHT FACE " ON UNIT  53 AT TIME STEP 66, STRESS PERIOD   3
 UBDSV1 SAVING "FLOW FRONT FACE " ON UNIT  53 AT TIME STEP 66, STRESS PERIOD   3
 UBDSV1 SAVING "FLOW LOWER FACE " ON UNIT  53 AT TIME STEP 66, STRESS PERIOD   3
1
              HEAD IN LAYER   1 AT END OF TIME STEP  66 IN STRESS PERIOD    3
  ---------------------------------------------------------------------------

            1           2           3           4           5
 ............................................................
   1    9.998       7.499       5.000       2.502      2.9983E-03
   2    9.998       7.499       5.000       2.502      2.9983E-03
   3    9.998       7.499       5.000       2.502      2.9983E-03
   4    9.998       7.499       5.000       2.502      2.9983E-03
   5    9.998       7.499       5.000       2.502      2.9983E-03
1
              HEAD IN LAYER   2 AT END OF TIME STEP  66 IN STRESS PERIOD    3
  ---------------------------------------------------------------------------

            1           2           3           4           5
 ............................................................
   1    9.998       7.499       5.000       2.502      2.9983E-03
   2    9.998       7.499       5.000       2.502      2.9983E-03
   3    9.998       7.499       5.000       2.502      2.9983E-03
   4    9.998       7.499       5.000       2.502      2.9983E-03
   5    9.998       7.499       5.000       2.502      2.9983E-03
1
              HEAD IN LAYER   3 AT END OF TIME STEP  66 IN STRESS PERIOD    3
  ---------------------------------------------------------------------------

            1           2           3           4           5
 ............................................................
   1    9.998       7.499       5.000       2.502      2.9983E-03
   2    9.998       7.499       5.000       2.502      2.9983E-03
   3    9.998       7.499       5.000       2.502      2.9983E-03
   4    9.998       7.499       5.000       2.502      2.9983E-03
   5    9.998       7.499       5.000       2.502      2.9983E-03
1
              HEAD IN LAYER   4 AT END OF TIME STEP  66 IN STRESS PERIOD    3
  ---------------------------------------------------------------------------

            1           2           3           4           5
 ............................................................
   1    9.998       7.499       5.000       2.502      2.9983E-03
   2    9.998       7.499       5.000       2.502      2.9983E-03
   3    9.998       7.499       5.000       2.502      2.9983E-03
   4    9.998       7.499       5.000       2.502      2.9983E-03
   5    9.998       7.499       5.000       2.502      2.9983E-03
1
              HEAD IN LAYER   5 AT END OF TIME STEP  66 IN STRESS PERIOD    3
  ---------------------------------------------------------------------------

            1           2           3           4           5
 ............................................................
   1    9.998       7.499       5.000       2.502      2.9983E-03
   2    9.998       7.499       5.000       2.502      2.9983E-03
   3    9.998       7.499       5.000       2.502      2.9983E-03
   4    9.998       7.499       5.000       2.502      2.9983E-03
   5    9.998       7.499       5.000       2.502      2.9983E-03

 HEAD WILL BE SAVED ON UNIT   51 AT END OF TIME STEP   66, STRESS PERIOD    3

 DRAWDOWN WILL BE SAVED ON UNIT   52 AT END OF TIME STEP   66, STRESS PERIOD    3
1
  VOLUMETRIC BUDGET FOR ENTIRE MODEL AT END OF TIME STEP   66, STRESS PERIOD   3
  ------------------------------------------------------------------------------

     CUMULATIVE VOLUMES      L**3       RATES FOR THIS TIME STEP      L**3/T
     ------------------                 ------------------------

           IN:                                      IN:
           ---                                      ---
             STORAGE =           0.0000               STORAGE =           0.0000
       CONSTANT HEAD =           0.0000         CONSTANT HEAD =           0.0000
               WELLS =           0.0000                 WELLS =           0.0000
     HEAD DEP BOUNDS =      136044.7500       HEAD DEP BOUNDS =         749.5200

            TOTAL IN =      136044.7500              TOTAL IN =         749.5200

          OUT:                                     OUT:
          ----                                     ----
             STORAGE =       15001.0791               STORAGE =           0.0000
       CONSTANT HEAD =           0.0000         CONSTANT HEAD =           0.0000
               WELLS =           0.0000                 WELLS =           0.0000
     HEAD DEP BOUNDS =      121052.0156       HEAD DEP BOUNDS =         749.5873

           TOTAL OUT =      136053.0938             TOTAL OUT =         749.5873

            IN - OUT =          -8.3438              IN - OUT =      -6.7383E-02

 PERCENT DISCREPANCY =          -0.01     PERCENT DISCREPANCY =          -0.01






         TIME SUMMARY AT END OF TIME STEP   66 IN STRESS PERIOD    3
                    SECONDS     MINUTES      HOURS       DAYS        YEARS
                    -----------------------------------------------------------
   TIME STEP LENGTH  86400.      1440.0      24.000      1.0000     2.73785E-03
 STRESS PERIOD TIME 5.70240E+06  95040.      1584.0      66.000     0.18070    
         TOTAL TIME 1.44288E+07 2.40480E+05  4008.0      167.00     0.45722    
1
 
 SOLVING FOR HEAD 

 OUTPUT CONTROL FOR STRESS PERIOD    3   TIME STEP   67
    SAVE HEAD FOR ALL LAYERS
    SAVE DRAWDOWN FOR ALL LAYERS
    SAVE BUDGET
    PRINT HEAD FOR ALL LAYERS
    PRINT BUDGET
 UBDSV1 SAVING "         STORAGE" ON UNIT  53 AT TIME STEP 67, STRESS PERIOD   3
 UBDSV2 SAVING "   CONSTANT HEAD" ON UNIT  53 AT TIME STEP 67, STRESS PERIOD   3
 UBDSV1 SAVING "FLOW RIGHT FACE " ON UNIT  53 AT TIME STEP 67, STRESS PERIOD   3
 UBDSV1 SAVING "FLOW FRONT FACE " ON UNIT  53 AT TIME STEP 67, STRESS PERIOD   3
 UBDSV1 SAVING "FLOW LOWER FACE " ON UNIT  53 AT TIME STEP 67, STRESS PERIOD   3
1
              HEAD IN LAYER   1 AT END OF TIME STEP  67 IN STRESS PERIOD    3
  ---------------------------------------------------------------------------

            1           2           3           4           5
 ............................................................
   1    9.998       7.499       5.000       2.502      2.9983E-03
   2    9.998       7.499       5.000       2.502      2.9983E-03
   3    9.998       7.499       5.000       2.502      2.9983E-03
   4    9.998       7.499       5.000       2.502      2.9983E-03
   5    9.998       7.499       5.000       2.502      2.9983E-03
1
              HEAD IN LAYER   2 AT END OF TIME STEP  67 IN STRESS PERIOD    3
  ---------------------------------------------------------------------------

            1           2           3           4           5
 ............................................................
   1    9.998       7.499       5.000       2.502      2.9983E-03
   2    9.998       7.499       5.000       2.502      2.9983E-03
   3    9.998       7.499       5.000       2.502      2.9983E-03
   4    9.998       7.499       5.000       2.502      2.9983E-03
   5    9.998       7.499       5.000       2.502      2.9983E-03
1
              HEAD IN LAYER   3 AT END OF TIME STEP  67 IN STRESS PERIOD    3
  ---------------------------------------------------------------------------

            1           2           3           4           5
 ............................................................
   1    9.998       7.499       5.000       2.502      2.9983E-03
   2    9.998       7.499       5.000       2.502      2.9983E-03
   3    9.998       7.499       5.000       2.502      2.9983E-03
   4    9.998       7.499       5.000       2.502      2.9983E-03
   5    9.998       7.499       5.000       2.502      2.9983E-03
1
              HEAD IN LAYER   4 AT END OF TIME STEP  67 IN STRESS PERIOD    3
  ---------------------------------------------------------------------------

            1           2           3           4           5
 ............................................................
   1    9.998       7.499       5.000       2.502      2.9983E-03
   2    9.998       7.499       5.000       2.502      2.9983E-03
   3    9.998       7.499       5.000       2.502      2.9983E-03
   4    9.998       7.499       5.000       2.502      2.9983E-03
   5    9.998       7.499       5.000       2.502      2.9983E-03
1
              HEAD IN LAYER   5 AT END OF TIME STEP  67 IN STRESS PERIOD    3
  ---------------------------------------------------------------------------

            1           2           3           4           5
 ............................................................
   1    9.998       7.499       5.000       2.502      2.9983E-03
   2    9.998       7.499       5.000       2.502      2.9983E-03
   3    9.998       7.499       5.000       2.502      2.9983E-03
   4    9.998       7.499       5.000       2.502      2.9983E-03
   5    9.998       7.499       5.000       2.502      2.9983E-03

 HEAD WILL BE SAVED ON UNIT   51 AT END OF TIME STEP   67, STRESS PERIOD    3

 DRAWDOWN WILL BE SAVED ON UNIT   52 AT END OF TIME STEP   67, STRESS PERIOD    3
1
  VOLUMETRIC BUDGET FOR ENTIRE MODEL AT END OF TIME STEP   67, STRESS PERIOD   3
  ------------------------------------------------------------------------------

     CUMULATIVE VOLUMES      L**3       RATES FOR THIS TIME STEP      L**3/T
     ------------------                 ------------------------

           IN:                                      IN:
           ---                                      ---
             STORAGE =           0.0000               STORAGE =           0.0000
       CONSTANT HEAD =           0.0000         CONSTANT HEAD =           0.0000
               WELLS =           0.0000                 WELLS =           0.0000
     HEAD DEP BOUNDS =      136794.2656       HEAD DEP BOUNDS =         749.5200

            TOTAL IN =      136794.2656              TOTAL IN =         749.5200

          OUT:                                     OUT:
          ----                                     ----
             STORAGE =       15001.0791               STORAGE =           0.0000
       CONSTANT HEAD =           0.0000         CONSTANT HEAD =           0.0000
               WELLS =           0.0000                 WELLS =           0.0000
     HEAD DEP BOUNDS =      121801.6016       HEAD DEP BOUNDS =         749.5873

           TOTAL OUT =      136802.6875             TOTAL OUT =         749.5873

            IN - OUT =          -8.4219              IN - OUT =      -6.7383E-02

 PERCENT DISCREPANCY =          -0.01     PERCENT DISCREPANCY =          -0.01






         TIME SUMMARY AT END OF TIME STEP   67 IN STRESS PERIOD    3
                    SECONDS     MINUTES      HOURS       DAYS        YEARS
                    -----------------------------------------------------------
   TIME STEP LENGTH  86400.      1440.0      24.000      1.0000     2.73785E-03
 STRESS PERIOD TIME 5.78880E+06  96480.      1608.0      67.000     0.18344    
         TOTAL TIME 1.45152E+07 2.41920E+05  4032.0      168.00     0.45996    
1
 
 SOLVING FOR HEAD 

 OUTPUT CONTROL FOR STRESS PERIOD    3   TIME STEP   68
    SAVE HEAD FOR ALL LAYERS
    SAVE DRAWDOWN FOR ALL LAYERS
    SAVE BUDGET
    PRINT HEAD FOR ALL LAYERS
    PRINT BUDGET
 UBDSV1 SAVING "         STORAGE" ON UNIT  53 AT TIME STEP 68, STRESS PERIOD   3
 UBDSV2 SAVING "   CONSTANT HEAD" ON UNIT  53 AT TIME STEP 68, STRESS PERIOD   3
 UBDSV1 SAVING "FLOW RIGHT FACE " ON UNIT  53 AT TIME STEP 68, STRESS PERIOD   3
 UBDSV1 SAVING "FLOW FRONT FACE " ON UNIT  53 AT TIME STEP 68, STRESS PERIOD   3
 UBDSV1 SAVING "FLOW LOWER FACE " ON UNIT  53 AT TIME STEP 68, STRESS PERIOD   3
1
              HEAD IN LAYER   1 AT END OF TIME STEP  68 IN STRESS PERIOD    3
  ---------------------------------------------------------------------------

            1           2           3           4           5
 ............................................................
   1    9.998       7.499       5.000       2.502      2.9983E-03
   2    9.998       7.499       5.000       2.502      2.9983E-03
   3    9.998       7.499       5.000       2.502      2.9983E-03
   4    9.998       7.499       5.000       2.502      2.9983E-03
   5    9.998       7.499       5.000       2.502      2.9983E-03
1
              HEAD IN LAYER   2 AT END OF TIME STEP  68 IN STRESS PERIOD    3
  ---------------------------------------------------------------------------

            1           2           3           4           5
 ............................................................
   1    9.998       7.499       5.000       2.502      2.9983E-03
   2    9.998       7.499       5.000       2.502      2.9983E-03
   3    9.998       7.499       5.000       2.502      2.9983E-03
   4    9.998       7.499       5.000       2.502      2.9983E-03
   5    9.998       7.499       5.000       2.502      2.9983E-03
1
              HEAD IN LAYER   3 AT END OF TIME STEP  68 IN STRESS PERIOD    3
  ---------------------------------------------------------------------------

            1           2           3           4           5
 ............................................................
   1    9.998       7.499       5.000       2.502      2.9983E-03
   2    9.998       7.499       5.000       2.502      2.9983E-03
   3    9.998       7.499       5.000       2.502      2.9983E-03
   4    9.998       7.499       5.000       2.502      2.9983E-03
   5    9.998       7.499       5.000       2.502      2.9983E-03
1
              HEAD IN LAYER   4 AT END OF TIME STEP  68 IN STRESS PERIOD    3
  ---------------------------------------------------------------------------

            1           2           3           4           5
 ............................................................
   1    9.998       7.499       5.000       2.502      2.9983E-03
   2    9.998       7.499       5.000       2.502      2.9983E-03
   3    9.998       7.499       5.000       2.502      2.9983E-03
   4    9.998       7.499       5.000       2.502      2.9983E-03
   5    9.998       7.499       5.000       2.502      2.9983E-03
1
              HEAD IN LAYER   5 AT END OF TIME STEP  68 IN STRESS PERIOD    3
  ---------------------------------------------------------------------------

            1           2           3           4           5
 ............................................................
   1    9.998       7.499       5.000       2.502      2.9983E-03
   2    9.998       7.499       5.000       2.502      2.9983E-03
   3    9.998       7.499       5.000       2.502      2.9983E-03
   4    9.998       7.499       5.000       2.502      2.9983E-03
   5    9.998       7.499       5.000       2.502      2.9983E-03

 HEAD WILL BE SAVED ON UNIT   51 AT END OF TIME STEP   68, STRESS PERIOD    3

 DRAWDOWN WILL BE SAVED ON UNIT   52 AT END OF TIME STEP   68, STRESS PERIOD    3
1
  VOLUMETRIC BUDGET FOR ENTIRE MODEL AT END OF TIME STEP   68, STRESS PERIOD   3
  ------------------------------------------------------------------------------

     CUMULATIVE VOLUMES      L**3       RATES FOR THIS TIME STEP      L**3/T
     ------------------                 ------------------------

           IN:                                      IN:
           ---                                      ---
             STORAGE =           0.0000               STORAGE =           0.0000
       CONSTANT HEAD =           0.0000         CONSTANT HEAD =           0.0000
               WELLS =           0.0000                 WELLS =           0.0000
     HEAD DEP BOUNDS =      137543.7812       HEAD DEP BOUNDS =         749.5200

            TOTAL IN =      137543.7812              TOTAL IN =         749.5200

          OUT:                                     OUT:
          ----                                     ----
             STORAGE =       15001.0791               STORAGE =           0.0000
       CONSTANT HEAD =           0.0000         CONSTANT HEAD =           0.0000
               WELLS =           0.0000                 WELLS =           0.0000
     HEAD DEP BOUNDS =      122551.1875       HEAD DEP BOUNDS =         749.5873

           TOTAL OUT =      137552.2656             TOTAL OUT =         749.5873

            IN - OUT =          -8.4844              IN - OUT =      -6.7383E-02

 PERCENT DISCREPANCY =          -0.01     PERCENT DISCREPANCY =          -0.01






         TIME SUMMARY AT END OF TIME STEP   68 IN STRESS PERIOD    3
                    SECONDS     MINUTES      HOURS       DAYS        YEARS
                    -----------------------------------------------------------
   TIME STEP LENGTH  86400.      1440.0      24.000      1.0000     2.73785E-03
 STRESS PERIOD TIME 5.87520E+06  97920.      1632.0      68.000     0.18617    
         TOTAL TIME 1.46016E+07 2.43360E+05  4056.0      169.00     0.46270    
1
 
 SOLVING FOR HEAD 

 OUTPUT CONTROL FOR STRESS PERIOD    3   TIME STEP   69
    SAVE HEAD FOR ALL LAYERS
    SAVE DRAWDOWN FOR ALL LAYERS
    SAVE BUDGET
    PRINT HEAD FOR ALL LAYERS
    PRINT BUDGET
 UBDSV1 SAVING "         STORAGE" ON UNIT  53 AT TIME STEP 69, STRESS PERIOD   3
 UBDSV2 SAVING "   CONSTANT HEAD" ON UNIT  53 AT TIME STEP 69, STRESS PERIOD   3
 UBDSV1 SAVING "FLOW RIGHT FACE " ON UNIT  53 AT TIME STEP 69, STRESS PERIOD   3
 UBDSV1 SAVING "FLOW FRONT FACE " ON UNIT  53 AT TIME STEP 69, STRESS PERIOD   3
 UBDSV1 SAVING "FLOW LOWER FACE " ON UNIT  53 AT TIME STEP 69, STRESS PERIOD   3
1
              HEAD IN LAYER   1 AT END OF TIME STEP  69 IN STRESS PERIOD    3
  ---------------------------------------------------------------------------

            1           2           3           4           5
 ............................................................
   1    9.998       7.499       5.000       2.502      2.9983E-03
   2    9.998       7.499       5.000       2.502      2.9983E-03
   3    9.998       7.499       5.000       2.502      2.9983E-03
   4    9.998       7.499       5.000       2.502      2.9983E-03
   5    9.998       7.499       5.000       2.502      2.9983E-03
1
              HEAD IN LAYER   2 AT END OF TIME STEP  69 IN STRESS PERIOD    3
  ---------------------------------------------------------------------------

            1           2           3           4           5
 ............................................................
   1    9.998       7.499       5.000       2.502      2.9983E-03
   2    9.998       7.499       5.000       2.502      2.9983E-03
   3    9.998       7.499       5.000       2.502      2.9983E-03
   4    9.998       7.499       5.000       2.502      2.9983E-03
   5    9.998       7.499       5.000       2.502      2.9983E-03
1
              HEAD IN LAYER   3 AT END OF TIME STEP  69 IN STRESS PERIOD    3
  ---------------------------------------------------------------------------

            1           2           3           4           5
 ............................................................
   1    9.998       7.499       5.000       2.502      2.9983E-03
   2    9.998       7.499       5.000       2.502      2.9983E-03
   3    9.998       7.499       5.000       2.502      2.9983E-03
   4    9.998       7.499       5.000       2.502      2.9983E-03
   5    9.998       7.499       5.000       2.502      2.9983E-03
1
              HEAD IN LAYER   4 AT END OF TIME STEP  69 IN STRESS PERIOD    3
  ---------------------------------------------------------------------------

            1           2           3           4           5
 ............................................................
   1    9.998       7.499       5.000       2.502      2.9983E-03
   2    9.998       7.499       5.000       2.502      2.9983E-03
   3    9.998       7.499       5.000       2.502      2.9983E-03
   4    9.998       7.499       5.000       2.502      2.9983E-03
   5    9.998       7.499       5.000       2.502      2.9983E-03
1
              HEAD IN LAYER   5 AT END OF TIME STEP  69 IN STRESS PERIOD    3
  ---------------------------------------------------------------------------

            1           2           3           4           5
 ............................................................
   1    9.998       7.499       5.000       2.502      2.9983E-03
   2    9.998       7.499       5.000       2.502      2.9983E-03
   3    9.998       7.499       5.000       2.502      2.9983E-03
   4    9.998       7.499       5.000       2.502      2.9983E-03
   5    9.998       7.499       5.000       2.502      2.9983E-03

 HEAD WILL BE SAVED ON UNIT   51 AT END OF TIME STEP   69, STRESS PERIOD    3

 DRAWDOWN WILL BE SAVED ON UNIT   52 AT END OF TIME STEP   69, STRESS PERIOD    3
1
  VOLUMETRIC BUDGET FOR ENTIRE MODEL AT END OF TIME STEP   69, STRESS PERIOD   3
  ------------------------------------------------------------------------------

     CUMULATIVE VOLUMES      L**3       RATES FOR THIS TIME STEP      L**3/T
     ------------------                 ------------------------

           IN:                                      IN:
           ---                                      ---
             STORAGE =           0.0000               STORAGE =           0.0000
       CONSTANT HEAD =           0.0000         CONSTANT HEAD =           0.0000
               WELLS =           0.0000                 WELLS =           0.0000
     HEAD DEP BOUNDS =      138293.2969       HEAD DEP BOUNDS =         749.5200

            TOTAL IN =      138293.2969              TOTAL IN =         749.5200

          OUT:                                     OUT:
          ----                                     ----
             STORAGE =       15001.0791               STORAGE =           0.0000
       CONSTANT HEAD =           0.0000         CONSTANT HEAD =           0.0000
               WELLS =           0.0000                 WELLS =           0.0000
     HEAD DEP BOUNDS =      123300.7734       HEAD DEP BOUNDS =         749.5873

           TOTAL OUT =      138301.8594             TOTAL OUT =         749.5873

            IN - OUT =          -8.5625              IN - OUT =      -6.7383E-02

 PERCENT DISCREPANCY =          -0.01     PERCENT DISCREPANCY =          -0.01






         TIME SUMMARY AT END OF TIME STEP   69 IN STRESS PERIOD    3
                    SECONDS     MINUTES      HOURS       DAYS        YEARS
                    -----------------------------------------------------------
   TIME STEP LENGTH  86400.      1440.0      24.000      1.0000     2.73785E-03
 STRESS PERIOD TIME 5.96160E+06  99360.      1656.0      69.000     0.18891    
         TOTAL TIME 1.46880E+07 2.44800E+05  4080.0      170.00     0.46543    
1
 
 SOLVING FOR HEAD 

 OUTPUT CONTROL FOR STRESS PERIOD    3   TIME STEP   70
    SAVE HEAD FOR ALL LAYERS
    SAVE DRAWDOWN FOR ALL LAYERS
    SAVE BUDGET
    PRINT HEAD FOR ALL LAYERS
    PRINT BUDGET
 UBDSV1 SAVING "         STORAGE" ON UNIT  53 AT TIME STEP 70, STRESS PERIOD   3
 UBDSV2 SAVING "   CONSTANT HEAD" ON UNIT  53 AT TIME STEP 70, STRESS PERIOD   3
 UBDSV1 SAVING "FLOW RIGHT FACE " ON UNIT  53 AT TIME STEP 70, STRESS PERIOD   3
 UBDSV1 SAVING "FLOW FRONT FACE " ON UNIT  53 AT TIME STEP 70, STRESS PERIOD   3
 UBDSV1 SAVING "FLOW LOWER FACE " ON UNIT  53 AT TIME STEP 70, STRESS PERIOD   3
1
              HEAD IN LAYER   1 AT END OF TIME STEP  70 IN STRESS PERIOD    3
  ---------------------------------------------------------------------------

            1           2           3           4           5
 ............................................................
   1    9.998       7.499       5.000       2.502      2.9983E-03
   2    9.998       7.499       5.000       2.502      2.9983E-03
   3    9.998       7.499       5.000       2.502      2.9983E-03
   4    9.998       7.499       5.000       2.502      2.9983E-03
   5    9.998       7.499       5.000       2.502      2.9983E-03
1
              HEAD IN LAYER   2 AT END OF TIME STEP  70 IN STRESS PERIOD    3
  ---------------------------------------------------------------------------

            1           2           3           4           5
 ............................................................
   1    9.998       7.499       5.000       2.502      2.9983E-03
   2    9.998       7.499       5.000       2.502      2.9983E-03
   3    9.998       7.499       5.000       2.502      2.9983E-03
   4    9.998       7.499       5.000       2.502      2.9983E-03
   5    9.998       7.499       5.000       2.502      2.9983E-03
1
              HEAD IN LAYER   3 AT END OF TIME STEP  70 IN STRESS PERIOD    3
  ---------------------------------------------------------------------------

            1           2           3           4           5
 ............................................................
   1    9.998       7.499       5.000       2.502      2.9983E-03
   2    9.998       7.499       5.000       2.502      2.9983E-03
   3    9.998       7.499       5.000       2.502      2.9983E-03
   4    9.998       7.499       5.000       2.502      2.9983E-03
   5    9.998       7.499       5.000       2.502      2.9983E-03
1
              HEAD IN LAYER   4 AT END OF TIME STEP  70 IN STRESS PERIOD    3
  ---------------------------------------------------------------------------

            1           2           3           4           5
 ............................................................
   1    9.998       7.499       5.000       2.502      2.9983E-03
   2    9.998       7.499       5.000       2.502      2.9983E-03
   3    9.998       7.499       5.000       2.502      2.9983E-03
   4    9.998       7.499       5.000       2.502      2.9983E-03
   5    9.998       7.499       5.000       2.502      2.9983E-03
1
              HEAD IN LAYER   5 AT END OF TIME STEP  70 IN STRESS PERIOD    3
  ---------------------------------------------------------------------------

            1           2           3           4           5
 ............................................................
   1    9.998       7.499       5.000       2.502      2.9983E-03
   2    9.998       7.499       5.000       2.502      2.9983E-03
   3    9.998       7.499       5.000       2.502      2.9983E-03
   4    9.998       7.499       5.000       2.502      2.9983E-03
   5    9.998       7.499       5.000       2.502      2.9983E-03

 HEAD WILL BE SAVED ON UNIT   51 AT END OF TIME STEP   70, STRESS PERIOD    3

 DRAWDOWN WILL BE SAVED ON UNIT   52 AT END OF TIME STEP   70, STRESS PERIOD    3
1
  VOLUMETRIC BUDGET FOR ENTIRE MODEL AT END OF TIME STEP   70, STRESS PERIOD   3
  ------------------------------------------------------------------------------

     CUMULATIVE VOLUMES      L**3       RATES FOR THIS TIME STEP      L**3/T
     ------------------                 ------------------------

           IN:                                      IN:
           ---                                      ---
             STORAGE =           0.0000               STORAGE =           0.0000
       CONSTANT HEAD =           0.0000         CONSTANT HEAD =           0.0000
               WELLS =           0.0000                 WELLS =           0.0000
     HEAD DEP BOUNDS =      139042.8125       HEAD DEP BOUNDS =         749.5200

            TOTAL IN =      139042.8125              TOTAL IN =         749.5200

          OUT:                                     OUT:
          ----                                     ----
             STORAGE =       15001.0791               STORAGE =           0.0000
       CONSTANT HEAD =           0.0000         CONSTANT HEAD =           0.0000
               WELLS =           0.0000                 WELLS =           0.0000
     HEAD DEP BOUNDS =      124050.3594       HEAD DEP BOUNDS =         749.5873

           TOTAL OUT =      139051.4375             TOTAL OUT =         749.5873

            IN - OUT =          -8.6250              IN - OUT =      -6.7383E-02

 PERCENT DISCREPANCY =          -0.01     PERCENT DISCREPANCY =          -0.01






         TIME SUMMARY AT END OF TIME STEP   70 IN STRESS PERIOD    3
                    SECONDS     MINUTES      HOURS       DAYS        YEARS
                    -----------------------------------------------------------
   TIME STEP LENGTH  86400.      1440.0      24.000      1.0000     2.73785E-03
 STRESS PERIOD TIME 6.04800E+06 1.00800E+05  1680.0      70.000     0.19165    
         TOTAL TIME 1.47744E+07 2.46240E+05  4104.0      171.00     0.46817    
1
 
 SOLVING FOR HEAD 

 OUTPUT CONTROL FOR STRESS PERIOD    3   TIME STEP   71
    SAVE HEAD FOR ALL LAYERS
    SAVE DRAWDOWN FOR ALL LAYERS
    SAVE BUDGET
    PRINT HEAD FOR ALL LAYERS
    PRINT BUDGET
 UBDSV1 SAVING "         STORAGE" ON UNIT  53 AT TIME STEP 71, STRESS PERIOD   3
 UBDSV2 SAVING "   CONSTANT HEAD" ON UNIT  53 AT TIME STEP 71, STRESS PERIOD   3
 UBDSV1 SAVING "FLOW RIGHT FACE " ON UNIT  53 AT TIME STEP 71, STRESS PERIOD   3
 UBDSV1 SAVING "FLOW FRONT FACE " ON UNIT  53 AT TIME STEP 71, STRESS PERIOD   3
 UBDSV1 SAVING "FLOW LOWER FACE " ON UNIT  53 AT TIME STEP 71, STRESS PERIOD   3
1
              HEAD IN LAYER   1 AT END OF TIME STEP  71 IN STRESS PERIOD    3
  ---------------------------------------------------------------------------

            1           2           3           4           5
 ............................................................
   1    9.998       7.499       5.000       2.502      2.9983E-03
   2    9.998       7.499       5.000       2.502      2.9983E-03
   3    9.998       7.499       5.000       2.502      2.9983E-03
   4    9.998       7.499       5.000       2.502      2.9983E-03
   5    9.998       7.499       5.000       2.502      2.9983E-03
1
              HEAD IN LAYER   2 AT END OF TIME STEP  71 IN STRESS PERIOD    3
  ---------------------------------------------------------------------------

            1           2           3           4           5
 ............................................................
   1    9.998       7.499       5.000       2.502      2.9983E-03
   2    9.998       7.499       5.000       2.502      2.9983E-03
   3    9.998       7.499       5.000       2.502      2.9983E-03
   4    9.998       7.499       5.000       2.502      2.9983E-03
   5    9.998       7.499       5.000       2.502      2.9983E-03
1
              HEAD IN LAYER   3 AT END OF TIME STEP  71 IN STRESS PERIOD    3
  ---------------------------------------------------------------------------

            1           2           3           4           5
 ............................................................
   1    9.998       7.499       5.000       2.502      2.9983E-03
   2    9.998       7.499       5.000       2.502      2.9983E-03
   3    9.998       7.499       5.000       2.502      2.9983E-03
   4    9.998       7.499       5.000       2.502      2.9983E-03
   5    9.998       7.499       5.000       2.502      2.9983E-03
1
              HEAD IN LAYER   4 AT END OF TIME STEP  71 IN STRESS PERIOD    3
  ---------------------------------------------------------------------------

            1           2           3           4           5
 ............................................................
   1    9.998       7.499       5.000       2.502      2.9983E-03
   2    9.998       7.499       5.000       2.502      2.9983E-03
   3    9.998       7.499       5.000       2.502      2.9983E-03
   4    9.998       7.499       5.000       2.502      2.9983E-03
   5    9.998       7.499       5.000       2.502      2.9983E-03
1
              HEAD IN LAYER   5 AT END OF TIME STEP  71 IN STRESS PERIOD    3
  ---------------------------------------------------------------------------

            1           2           3           4           5
 ............................................................
   1    9.998       7.499       5.000       2.502      2.9983E-03
   2    9.998       7.499       5.000       2.502      2.9983E-03
   3    9.998       7.499       5.000       2.502      2.9983E-03
   4    9.998       7.499       5.000       2.502      2.9983E-03
   5    9.998       7.499       5.000       2.502      2.9983E-03

 HEAD WILL BE SAVED ON UNIT   51 AT END OF TIME STEP   71, STRESS PERIOD    3

 DRAWDOWN WILL BE SAVED ON UNIT   52 AT END OF TIME STEP   71, STRESS PERIOD    3
1
  VOLUMETRIC BUDGET FOR ENTIRE MODEL AT END OF TIME STEP   71, STRESS PERIOD   3
  ------------------------------------------------------------------------------

     CUMULATIVE VOLUMES      L**3       RATES FOR THIS TIME STEP      L**3/T
     ------------------                 ------------------------

           IN:                                      IN:
           ---                                      ---
             STORAGE =           0.0000               STORAGE =           0.0000
       CONSTANT HEAD =           0.0000         CONSTANT HEAD =           0.0000
               WELLS =           0.0000                 WELLS =           0.0000
     HEAD DEP BOUNDS =      139792.3281       HEAD DEP BOUNDS =         749.5200

            TOTAL IN =      139792.3281              TOTAL IN =         749.5200

          OUT:                                     OUT:
          ----                                     ----
             STORAGE =       15001.0791               STORAGE =           0.0000
       CONSTANT HEAD =           0.0000         CONSTANT HEAD =           0.0000
               WELLS =           0.0000                 WELLS =           0.0000
     HEAD DEP BOUNDS =      124799.9453       HEAD DEP BOUNDS =         749.5873

           TOTAL OUT =      139801.0312             TOTAL OUT =         749.5873

            IN - OUT =          -8.7031              IN - OUT =      -6.7383E-02

 PERCENT DISCREPANCY =          -0.01     PERCENT DISCREPANCY =          -0.01






         TIME SUMMARY AT END OF TIME STEP   71 IN STRESS PERIOD    3
                    SECONDS     MINUTES      HOURS       DAYS        YEARS
                    -----------------------------------------------------------
   TIME STEP LENGTH  86400.      1440.0      24.000      1.0000     2.73785E-03
 STRESS PERIOD TIME 6.13440E+06 1.02240E+05  1704.0      71.000     0.19439    
         TOTAL TIME 1.48608E+07 2.47680E+05  4128.0      172.00     0.47091    
1
 
 SOLVING FOR HEAD 

 OUTPUT CONTROL FOR STRESS PERIOD    3   TIME STEP   72
    SAVE HEAD FOR ALL LAYERS
    SAVE DRAWDOWN FOR ALL LAYERS
    SAVE BUDGET
    PRINT HEAD FOR ALL LAYERS
    PRINT BUDGET
 UBDSV1 SAVING "         STORAGE" ON UNIT  53 AT TIME STEP 72, STRESS PERIOD   3
 UBDSV2 SAVING "   CONSTANT HEAD" ON UNIT  53 AT TIME STEP 72, STRESS PERIOD   3
 UBDSV1 SAVING "FLOW RIGHT FACE " ON UNIT  53 AT TIME STEP 72, STRESS PERIOD   3
 UBDSV1 SAVING "FLOW FRONT FACE " ON UNIT  53 AT TIME STEP 72, STRESS PERIOD   3
 UBDSV1 SAVING "FLOW LOWER FACE " ON UNIT  53 AT TIME STEP 72, STRESS PERIOD   3
1
              HEAD IN LAYER   1 AT END OF TIME STEP  72 IN STRESS PERIOD    3
  ---------------------------------------------------------------------------

            1           2           3           4           5
 ............................................................
   1    9.998       7.499       5.000       2.502      2.9983E-03
   2    9.998       7.499       5.000       2.502      2.9983E-03
   3    9.998       7.499       5.000       2.502      2.9983E-03
   4    9.998       7.499       5.000       2.502      2.9983E-03
   5    9.998       7.499       5.000       2.502      2.9983E-03
1
              HEAD IN LAYER   2 AT END OF TIME STEP  72 IN STRESS PERIOD    3
  ---------------------------------------------------------------------------

            1           2           3           4           5
 ............................................................
   1    9.998       7.499       5.000       2.502      2.9983E-03
   2    9.998       7.499       5.000       2.502      2.9983E-03
   3    9.998       7.499       5.000       2.502      2.9983E-03
   4    9.998       7.499       5.000       2.502      2.9983E-03
   5    9.998       7.499       5.000       2.502      2.9983E-03
1
              HEAD IN LAYER   3 AT END OF TIME STEP  72 IN STRESS PERIOD    3
  ---------------------------------------------------------------------------

            1           2           3           4           5
 ............................................................
   1    9.998       7.499       5.000       2.502      2.9983E-03
   2    9.998       7.499       5.000       2.502      2.9983E-03
   3    9.998       7.499       5.000       2.502      2.9983E-03
   4    9.998       7.499       5.000       2.502      2.9983E-03
   5    9.998       7.499       5.000       2.502      2.9983E-03
1
              HEAD IN LAYER   4 AT END OF TIME STEP  72 IN STRESS PERIOD    3
  ---------------------------------------------------------------------------

            1           2           3           4           5
 ............................................................
   1    9.998       7.499       5.000       2.502      2.9983E-03
   2    9.998       7.499       5.000       2.502      2.9983E-03
   3    9.998       7.499       5.000       2.502      2.9983E-03
   4    9.998       7.499       5.000       2.502      2.9983E-03
   5    9.998       7.499       5.000       2.502      2.9983E-03
1
              HEAD IN LAYER   5 AT END OF TIME STEP  72 IN STRESS PERIOD    3
  ---------------------------------------------------------------------------

            1           2           3           4           5
 ............................................................
   1    9.998       7.499       5.000       2.502      2.9983E-03
   2    9.998       7.499       5.000       2.502      2.9983E-03
   3    9.998       7.499       5.000       2.502      2.9983E-03
   4    9.998       7.499       5.000       2.502      2.9983E-03
   5    9.998       7.499       5.000       2.502      2.9983E-03

 HEAD WILL BE SAVED ON UNIT   51 AT END OF TIME STEP   72, STRESS PERIOD    3

 DRAWDOWN WILL BE SAVED ON UNIT   52 AT END OF TIME STEP   72, STRESS PERIOD    3
1
  VOLUMETRIC BUDGET FOR ENTIRE MODEL AT END OF TIME STEP   72, STRESS PERIOD   3
  ------------------------------------------------------------------------------

     CUMULATIVE VOLUMES      L**3       RATES FOR THIS TIME STEP      L**3/T
     ------------------                 ------------------------

           IN:                                      IN:
           ---                                      ---
             STORAGE =           0.0000               STORAGE =           0.0000
       CONSTANT HEAD =           0.0000         CONSTANT HEAD =           0.0000
               WELLS =           0.0000                 WELLS =           0.0000
     HEAD DEP BOUNDS =      140541.8438       HEAD DEP BOUNDS =         749.5200

            TOTAL IN =      140541.8438              TOTAL IN =         749.5200

          OUT:                                     OUT:
          ----                                     ----
             STORAGE =       15001.0791               STORAGE =           0.0000
       CONSTANT HEAD =           0.0000         CONSTANT HEAD =           0.0000
               WELLS =           0.0000                 WELLS =           0.0000
     HEAD DEP BOUNDS =      125549.5312       HEAD DEP BOUNDS =         749.5873

           TOTAL OUT =      140550.6094             TOTAL OUT =         749.5873

            IN - OUT =          -8.7656              IN - OUT =      -6.7383E-02

 PERCENT DISCREPANCY =          -0.01     PERCENT DISCREPANCY =          -0.01






         TIME SUMMARY AT END OF TIME STEP   72 IN STRESS PERIOD    3
                    SECONDS     MINUTES      HOURS       DAYS        YEARS
                    -----------------------------------------------------------
   TIME STEP LENGTH  86400.      1440.0      24.000      1.0000     2.73785E-03
 STRESS PERIOD TIME 6.22080E+06 1.03680E+05  1728.0      72.000     0.19713    
         TOTAL TIME 1.49472E+07 2.49120E+05  4152.0      173.00     0.47365    
1
 
 SOLVING FOR HEAD 

 OUTPUT CONTROL FOR STRESS PERIOD    3   TIME STEP   73
    SAVE HEAD FOR ALL LAYERS
    SAVE DRAWDOWN FOR ALL LAYERS
    SAVE BUDGET
    PRINT HEAD FOR ALL LAYERS
    PRINT BUDGET
 UBDSV1 SAVING "         STORAGE" ON UNIT  53 AT TIME STEP 73, STRESS PERIOD   3
 UBDSV2 SAVING "   CONSTANT HEAD" ON UNIT  53 AT TIME STEP 73, STRESS PERIOD   3
 UBDSV1 SAVING "FLOW RIGHT FACE " ON UNIT  53 AT TIME STEP 73, STRESS PERIOD   3
 UBDSV1 SAVING "FLOW FRONT FACE " ON UNIT  53 AT TIME STEP 73, STRESS PERIOD   3
 UBDSV1 SAVING "FLOW LOWER FACE " ON UNIT  53 AT TIME STEP 73, STRESS PERIOD   3
1
              HEAD IN LAYER   1 AT END OF TIME STEP  73 IN STRESS PERIOD    3
  ---------------------------------------------------------------------------

            1           2           3           4           5
 ............................................................
   1    9.998       7.499       5.000       2.502      2.9983E-03
   2    9.998       7.499       5.000       2.502      2.9983E-03
   3    9.998       7.499       5.000       2.502      2.9983E-03
   4    9.998       7.499       5.000       2.502      2.9983E-03
   5    9.998       7.499       5.000       2.502      2.9983E-03
1
              HEAD IN LAYER   2 AT END OF TIME STEP  73 IN STRESS PERIOD    3
  ---------------------------------------------------------------------------

            1           2           3           4           5
 ............................................................
   1    9.998       7.499       5.000       2.502      2.9983E-03
   2    9.998       7.499       5.000       2.502      2.9983E-03
   3    9.998       7.499       5.000       2.502      2.9983E-03
   4    9.998       7.499       5.000       2.502      2.9983E-03
   5    9.998       7.499       5.000       2.502      2.9983E-03
1
              HEAD IN LAYER   3 AT END OF TIME STEP  73 IN STRESS PERIOD    3
  ---------------------------------------------------------------------------

            1           2           3           4           5
 ............................................................
   1    9.998       7.499       5.000       2.502      2.9983E-03
   2    9.998       7.499       5.000       2.502      2.9983E-03
   3    9.998       7.499       5.000       2.502      2.9983E-03
   4    9.998       7.499       5.000       2.502      2.9983E-03
   5    9.998       7.499       5.000       2.502      2.9983E-03
1
              HEAD IN LAYER   4 AT END OF TIME STEP  73 IN STRESS PERIOD    3
  ---------------------------------------------------------------------------

            1           2           3           4           5
 ............................................................
   1    9.998       7.499       5.000       2.502      2.9983E-03
   2    9.998       7.499       5.000       2.502      2.9983E-03
   3    9.998       7.499       5.000       2.502      2.9983E-03
   4    9.998       7.499       5.000       2.502      2.9983E-03
   5    9.998       7.499       5.000       2.502      2.9983E-03
1
              HEAD IN LAYER   5 AT END OF TIME STEP  73 IN STRESS PERIOD    3
  ---------------------------------------------------------------------------

            1           2           3           4           5
 ............................................................
   1    9.998       7.499       5.000       2.502      2.9983E-03
   2    9.998       7.499       5.000       2.502      2.9983E-03
   3    9.998       7.499       5.000       2.502      2.9983E-03
   4    9.998       7.499       5.000       2.502      2.9983E-03
   5    9.998       7.499       5.000       2.502      2.9983E-03

 HEAD WILL BE SAVED ON UNIT   51 AT END OF TIME STEP   73, STRESS PERIOD    3

 DRAWDOWN WILL BE SAVED ON UNIT   52 AT END OF TIME STEP   73, STRESS PERIOD    3
1
  VOLUMETRIC BUDGET FOR ENTIRE MODEL AT END OF TIME STEP   73, STRESS PERIOD   3
  ------------------------------------------------------------------------------

     CUMULATIVE VOLUMES      L**3       RATES FOR THIS TIME STEP      L**3/T
     ------------------                 ------------------------

           IN:                                      IN:
           ---                                      ---
             STORAGE =           0.0000               STORAGE =           0.0000
       CONSTANT HEAD =           0.0000         CONSTANT HEAD =           0.0000
               WELLS =           0.0000                 WELLS =           0.0000
     HEAD DEP BOUNDS =      141291.3594       HEAD DEP BOUNDS =         749.5200

            TOTAL IN =      141291.3594              TOTAL IN =         749.5200

          OUT:                                     OUT:
          ----                                     ----
             STORAGE =       15001.0791               STORAGE =           0.0000
       CONSTANT HEAD =           0.0000         CONSTANT HEAD =           0.0000
               WELLS =           0.0000                 WELLS =           0.0000
     HEAD DEP BOUNDS =      126299.1172       HEAD DEP BOUNDS =         749.5873

           TOTAL OUT =      141300.2031             TOTAL OUT =         749.5873

            IN - OUT =          -8.8438              IN - OUT =      -6.7383E-02

 PERCENT DISCREPANCY =          -0.01     PERCENT DISCREPANCY =          -0.01






         TIME SUMMARY AT END OF TIME STEP   73 IN STRESS PERIOD    3
                    SECONDS     MINUTES      HOURS       DAYS        YEARS
                    -----------------------------------------------------------
   TIME STEP LENGTH  86400.      1440.0      24.000      1.0000     2.73785E-03
 STRESS PERIOD TIME 6.30720E+06 1.05120E+05  1752.0      73.000     0.19986    
         TOTAL TIME 1.50336E+07 2.50560E+05  4176.0      174.00     0.47639    
1
 
 SOLVING FOR HEAD 

 OUTPUT CONTROL FOR STRESS PERIOD    3   TIME STEP   74
    SAVE HEAD FOR ALL LAYERS
    SAVE DRAWDOWN FOR ALL LAYERS
    SAVE BUDGET
    PRINT HEAD FOR ALL LAYERS
    PRINT BUDGET
 UBDSV1 SAVING "         STORAGE" ON UNIT  53 AT TIME STEP 74, STRESS PERIOD   3
 UBDSV2 SAVING "   CONSTANT HEAD" ON UNIT  53 AT TIME STEP 74, STRESS PERIOD   3
 UBDSV1 SAVING "FLOW RIGHT FACE " ON UNIT  53 AT TIME STEP 74, STRESS PERIOD   3
 UBDSV1 SAVING "FLOW FRONT FACE " ON UNIT  53 AT TIME STEP 74, STRESS PERIOD   3
 UBDSV1 SAVING "FLOW LOWER FACE " ON UNIT  53 AT TIME STEP 74, STRESS PERIOD   3
1
              HEAD IN LAYER   1 AT END OF TIME STEP  74 IN STRESS PERIOD    3
  ---------------------------------------------------------------------------

            1           2           3           4           5
 ............................................................
   1    9.998       7.499       5.000       2.502      2.9983E-03
   2    9.998       7.499       5.000       2.502      2.9983E-03
   3    9.998       7.499       5.000       2.502      2.9983E-03
   4    9.998       7.499       5.000       2.502      2.9983E-03
   5    9.998       7.499       5.000       2.502      2.9983E-03
1
              HEAD IN LAYER   2 AT END OF TIME STEP  74 IN STRESS PERIOD    3
  ---------------------------------------------------------------------------

            1           2           3           4           5
 ............................................................
   1    9.998       7.499       5.000       2.502      2.9983E-03
   2    9.998       7.499       5.000       2.502      2.9983E-03
   3    9.998       7.499       5.000       2.502      2.9983E-03
   4    9.998       7.499       5.000       2.502      2.9983E-03
   5    9.998       7.499       5.000       2.502      2.9983E-03
1
              HEAD IN LAYER   3 AT END OF TIME STEP  74 IN STRESS PERIOD    3
  ---------------------------------------------------------------------------

            1           2           3           4           5
 ............................................................
   1    9.998       7.499       5.000       2.502      2.9983E-03
   2    9.998       7.499       5.000       2.502      2.9983E-03
   3    9.998       7.499       5.000       2.502      2.9983E-03
   4    9.998       7.499       5.000       2.502      2.9983E-03
   5    9.998       7.499       5.000       2.502      2.9983E-03
1
              HEAD IN LAYER   4 AT END OF TIME STEP  74 IN STRESS PERIOD    3
  ---------------------------------------------------------------------------

            1           2           3           4           5
 ............................................................
   1    9.998       7.499       5.000       2.502      2.9983E-03
   2    9.998       7.499       5.000       2.502      2.9983E-03
   3    9.998       7.499       5.000       2.502      2.9983E-03
   4    9.998       7.499       5.000       2.502      2.9983E-03
   5    9.998       7.499       5.000       2.502      2.9983E-03
1
              HEAD IN LAYER   5 AT END OF TIME STEP  74 IN STRESS PERIOD    3
  ---------------------------------------------------------------------------

            1           2           3           4           5
 ............................................................
   1    9.998       7.499       5.000       2.502      2.9983E-03
   2    9.998       7.499       5.000       2.502      2.9983E-03
   3    9.998       7.499       5.000       2.502      2.9983E-03
   4    9.998       7.499       5.000       2.502      2.9983E-03
   5    9.998       7.499       5.000       2.502      2.9983E-03

 HEAD WILL BE SAVED ON UNIT   51 AT END OF TIME STEP   74, STRESS PERIOD    3

 DRAWDOWN WILL BE SAVED ON UNIT   52 AT END OF TIME STEP   74, STRESS PERIOD    3
1
  VOLUMETRIC BUDGET FOR ENTIRE MODEL AT END OF TIME STEP   74, STRESS PERIOD   3
  ------------------------------------------------------------------------------

     CUMULATIVE VOLUMES      L**3       RATES FOR THIS TIME STEP      L**3/T
     ------------------                 ------------------------

           IN:                                      IN:
           ---                                      ---
             STORAGE =           0.0000               STORAGE =           0.0000
       CONSTANT HEAD =           0.0000         CONSTANT HEAD =           0.0000
               WELLS =           0.0000                 WELLS =           0.0000
     HEAD DEP BOUNDS =      142040.8750       HEAD DEP BOUNDS =         749.5200

            TOTAL IN =      142040.8750              TOTAL IN =         749.5200

          OUT:                                     OUT:
          ----                                     ----
             STORAGE =       15001.0791               STORAGE =           0.0000
       CONSTANT HEAD =           0.0000         CONSTANT HEAD =           0.0000
               WELLS =           0.0000                 WELLS =           0.0000
     HEAD DEP BOUNDS =      127048.7031       HEAD DEP BOUNDS =         749.5873

           TOTAL OUT =      142049.7812             TOTAL OUT =         749.5873

            IN - OUT =          -8.9062              IN - OUT =      -6.7383E-02

 PERCENT DISCREPANCY =          -0.01     PERCENT DISCREPANCY =          -0.01






         TIME SUMMARY AT END OF TIME STEP   74 IN STRESS PERIOD    3
                    SECONDS     MINUTES      HOURS       DAYS        YEARS
                    -----------------------------------------------------------
   TIME STEP LENGTH  86400.      1440.0      24.000      1.0000     2.73785E-03
 STRESS PERIOD TIME 6.39360E+06 1.06560E+05  1776.0      74.000     0.20260    
         TOTAL TIME 1.51200E+07 2.52000E+05  4200.0      175.00     0.47912    
1
 
 SOLVING FOR HEAD 

 OUTPUT CONTROL FOR STRESS PERIOD    3   TIME STEP   75
    SAVE HEAD FOR ALL LAYERS
    SAVE DRAWDOWN FOR ALL LAYERS
    SAVE BUDGET
    PRINT HEAD FOR ALL LAYERS
    PRINT BUDGET
 UBDSV1 SAVING "         STORAGE" ON UNIT  53 AT TIME STEP 75, STRESS PERIOD   3
 UBDSV2 SAVING "   CONSTANT HEAD" ON UNIT  53 AT TIME STEP 75, STRESS PERIOD   3
 UBDSV1 SAVING "FLOW RIGHT FACE " ON UNIT  53 AT TIME STEP 75, STRESS PERIOD   3
 UBDSV1 SAVING "FLOW FRONT FACE " ON UNIT  53 AT TIME STEP 75, STRESS PERIOD   3
 UBDSV1 SAVING "FLOW LOWER FACE " ON UNIT  53 AT TIME STEP 75, STRESS PERIOD   3
1
              HEAD IN LAYER   1 AT END OF TIME STEP  75 IN STRESS PERIOD    3
  ---------------------------------------------------------------------------

            1           2           3           4           5
 ............................................................
   1    9.998       7.499       5.000       2.502      2.9983E-03
   2    9.998       7.499       5.000       2.502      2.9983E-03
   3    9.998       7.499       5.000       2.502      2.9983E-03
   4    9.998       7.499       5.000       2.502      2.9983E-03
   5    9.998       7.499       5.000       2.502      2.9983E-03
1
              HEAD IN LAYER   2 AT END OF TIME STEP  75 IN STRESS PERIOD    3
  ---------------------------------------------------------------------------

            1           2           3           4           5
 ............................................................
   1    9.998       7.499       5.000       2.502      2.9983E-03
   2    9.998       7.499       5.000       2.502      2.9983E-03
   3    9.998       7.499       5.000       2.502      2.9983E-03
   4    9.998       7.499       5.000       2.502      2.9983E-03
   5    9.998       7.499       5.000       2.502      2.9983E-03
1
              HEAD IN LAYER   3 AT END OF TIME STEP  75 IN STRESS PERIOD    3
  ---------------------------------------------------------------------------

            1           2           3           4           5
 ............................................................
   1    9.998       7.499       5.000       2.502      2.9983E-03
   2    9.998       7.499       5.000       2.502      2.9983E-03
   3    9.998       7.499       5.000       2.502      2.9983E-03
   4    9.998       7.499       5.000       2.502      2.9983E-03
   5    9.998       7.499       5.000       2.502      2.9983E-03
1
              HEAD IN LAYER   4 AT END OF TIME STEP  75 IN STRESS PERIOD    3
  ---------------------------------------------------------------------------

            1           2           3           4           5
 ............................................................
   1    9.998       7.499       5.000       2.502      2.9983E-03
   2    9.998       7.499       5.000       2.502      2.9983E-03
   3    9.998       7.499       5.000       2.502      2.9983E-03
   4    9.998       7.499       5.000       2.502      2.9983E-03
   5    9.998       7.499       5.000       2.502      2.9983E-03
1
              HEAD IN LAYER   5 AT END OF TIME STEP  75 IN STRESS PERIOD    3
  ---------------------------------------------------------------------------

            1           2           3           4           5
 ............................................................
   1    9.998       7.499       5.000       2.502      2.9983E-03
   2    9.998       7.499       5.000       2.502      2.9983E-03
   3    9.998       7.499       5.000       2.502      2.9983E-03
   4    9.998       7.499       5.000       2.502      2.9983E-03
   5    9.998       7.499       5.000       2.502      2.9983E-03

 HEAD WILL BE SAVED ON UNIT   51 AT END OF TIME STEP   75, STRESS PERIOD    3

 DRAWDOWN WILL BE SAVED ON UNIT   52 AT END OF TIME STEP   75, STRESS PERIOD    3
1
  VOLUMETRIC BUDGET FOR ENTIRE MODEL AT END OF TIME STEP   75, STRESS PERIOD   3
  ------------------------------------------------------------------------------

     CUMULATIVE VOLUMES      L**3       RATES FOR THIS TIME STEP      L**3/T
     ------------------                 ------------------------

           IN:                                      IN:
           ---                                      ---
             STORAGE =           0.0000               STORAGE =           0.0000
       CONSTANT HEAD =           0.0000         CONSTANT HEAD =           0.0000
               WELLS =           0.0000                 WELLS =           0.0000
     HEAD DEP BOUNDS =      142790.3906       HEAD DEP BOUNDS =         749.5200

            TOTAL IN =      142790.3906              TOTAL IN =         749.5200

          OUT:                                     OUT:
          ----                                     ----
             STORAGE =       15001.0791               STORAGE =           0.0000
       CONSTANT HEAD =           0.0000         CONSTANT HEAD =           0.0000
               WELLS =           0.0000                 WELLS =           0.0000
     HEAD DEP BOUNDS =      127798.2891       HEAD DEP BOUNDS =         749.5873

           TOTAL OUT =      142799.3750             TOTAL OUT =         749.5873

            IN - OUT =          -8.9844              IN - OUT =      -6.7383E-02

 PERCENT DISCREPANCY =          -0.01     PERCENT DISCREPANCY =          -0.01






         TIME SUMMARY AT END OF TIME STEP   75 IN STRESS PERIOD    3
                    SECONDS     MINUTES      HOURS       DAYS        YEARS
                    -----------------------------------------------------------
   TIME STEP LENGTH  86400.      1440.0      24.000      1.0000     2.73785E-03
 STRESS PERIOD TIME 6.48000E+06 1.08000E+05  1800.0      75.000     0.20534    
         TOTAL TIME 1.52064E+07 2.53440E+05  4224.0      176.00     0.48186    
1
 
 SOLVING FOR HEAD 

 OUTPUT CONTROL FOR STRESS PERIOD    3   TIME STEP   76
    SAVE HEAD FOR ALL LAYERS
    SAVE DRAWDOWN FOR ALL LAYERS
    SAVE BUDGET
    PRINT HEAD FOR ALL LAYERS
    PRINT BUDGET
 UBDSV1 SAVING "         STORAGE" ON UNIT  53 AT TIME STEP 76, STRESS PERIOD   3
 UBDSV2 SAVING "   CONSTANT HEAD" ON UNIT  53 AT TIME STEP 76, STRESS PERIOD   3
 UBDSV1 SAVING "FLOW RIGHT FACE " ON UNIT  53 AT TIME STEP 76, STRESS PERIOD   3
 UBDSV1 SAVING "FLOW FRONT FACE " ON UNIT  53 AT TIME STEP 76, STRESS PERIOD   3
 UBDSV1 SAVING "FLOW LOWER FACE " ON UNIT  53 AT TIME STEP 76, STRESS PERIOD   3
1
              HEAD IN LAYER   1 AT END OF TIME STEP  76 IN STRESS PERIOD    3
  ---------------------------------------------------------------------------

            1           2           3           4           5
 ............................................................
   1    9.998       7.499       5.000       2.502      2.9983E-03
   2    9.998       7.499       5.000       2.502      2.9983E-03
   3    9.998       7.499       5.000       2.502      2.9983E-03
   4    9.998       7.499       5.000       2.502      2.9983E-03
   5    9.998       7.499       5.000       2.502      2.9983E-03
1
              HEAD IN LAYER   2 AT END OF TIME STEP  76 IN STRESS PERIOD    3
  ---------------------------------------------------------------------------

            1           2           3           4           5
 ............................................................
   1    9.998       7.499       5.000       2.502      2.9983E-03
   2    9.998       7.499       5.000       2.502      2.9983E-03
   3    9.998       7.499       5.000       2.502      2.9983E-03
   4    9.998       7.499       5.000       2.502      2.9983E-03
   5    9.998       7.499       5.000       2.502      2.9983E-03
1
              HEAD IN LAYER   3 AT END OF TIME STEP  76 IN STRESS PERIOD    3
  ---------------------------------------------------------------------------

            1           2           3           4           5
 ............................................................
   1    9.998       7.499       5.000       2.502      2.9983E-03
   2    9.998       7.499       5.000       2.502      2.9983E-03
   3    9.998       7.499       5.000       2.502      2.9983E-03
   4    9.998       7.499       5.000       2.502      2.9983E-03
   5    9.998       7.499       5.000       2.502      2.9983E-03
1
              HEAD IN LAYER   4 AT END OF TIME STEP  76 IN STRESS PERIOD    3
  ---------------------------------------------------------------------------

            1           2           3           4           5
 ............................................................
   1    9.998       7.499       5.000       2.502      2.9983E-03
   2    9.998       7.499       5.000       2.502      2.9983E-03
   3    9.998       7.499       5.000       2.502      2.9983E-03
   4    9.998       7.499       5.000       2.502      2.9983E-03
   5    9.998       7.499       5.000       2.502      2.9983E-03
1
              HEAD IN LAYER   5 AT END OF TIME STEP  76 IN STRESS PERIOD    3
  ---------------------------------------------------------------------------

            1           2           3           4           5
 ............................................................
   1    9.998       7.499       5.000       2.502      2.9983E-03
   2    9.998       7.499       5.000       2.502      2.9983E-03
   3    9.998       7.499       5.000       2.502      2.9983E-03
   4    9.998       7.499       5.000       2.502      2.9983E-03
   5    9.998       7.499       5.000       2.502      2.9983E-03

 HEAD WILL BE SAVED ON UNIT   51 AT END OF TIME STEP   76, STRESS PERIOD    3

 DRAWDOWN WILL BE SAVED ON UNIT   52 AT END OF TIME STEP   76, STRESS PERIOD    3
1
  VOLUMETRIC BUDGET FOR ENTIRE MODEL AT END OF TIME STEP   76, STRESS PERIOD   3
  ------------------------------------------------------------------------------

     CUMULATIVE VOLUMES      L**3       RATES FOR THIS TIME STEP      L**3/T
     ------------------                 ------------------------

           IN:                                      IN:
           ---                                      ---
             STORAGE =           0.0000               STORAGE =           0.0000
       CONSTANT HEAD =           0.0000         CONSTANT HEAD =           0.0000
               WELLS =           0.0000                 WELLS =           0.0000
     HEAD DEP BOUNDS =      143539.9062       HEAD DEP BOUNDS =         749.5200

            TOTAL IN =      143539.9062              TOTAL IN =         749.5200

          OUT:                                     OUT:
          ----                                     ----
             STORAGE =       15001.0791               STORAGE =           0.0000
       CONSTANT HEAD =           0.0000         CONSTANT HEAD =           0.0000
               WELLS =           0.0000                 WELLS =           0.0000
     HEAD DEP BOUNDS =      128547.8750       HEAD DEP BOUNDS =         749.5873

           TOTAL OUT =      143548.9531             TOTAL OUT =         749.5873

            IN - OUT =          -9.0469              IN - OUT =      -6.7383E-02

 PERCENT DISCREPANCY =          -0.01     PERCENT DISCREPANCY =          -0.01






         TIME SUMMARY AT END OF TIME STEP   76 IN STRESS PERIOD    3
                    SECONDS     MINUTES      HOURS       DAYS        YEARS
                    -----------------------------------------------------------
   TIME STEP LENGTH  86400.      1440.0      24.000      1.0000     2.73785E-03
 STRESS PERIOD TIME 6.56640E+06 1.09440E+05  1824.0      76.000     0.20808    
         TOTAL TIME 1.52928E+07 2.54880E+05  4248.0      177.00     0.48460    
1
 
 SOLVING FOR HEAD 

 OUTPUT CONTROL FOR STRESS PERIOD    3   TIME STEP   77
    SAVE HEAD FOR ALL LAYERS
    SAVE DRAWDOWN FOR ALL LAYERS
    SAVE BUDGET
    PRINT HEAD FOR ALL LAYERS
    PRINT BUDGET
 UBDSV1 SAVING "         STORAGE" ON UNIT  53 AT TIME STEP 77, STRESS PERIOD   3
 UBDSV2 SAVING "   CONSTANT HEAD" ON UNIT  53 AT TIME STEP 77, STRESS PERIOD   3
 UBDSV1 SAVING "FLOW RIGHT FACE " ON UNIT  53 AT TIME STEP 77, STRESS PERIOD   3
 UBDSV1 SAVING "FLOW FRONT FACE " ON UNIT  53 AT TIME STEP 77, STRESS PERIOD   3
 UBDSV1 SAVING "FLOW LOWER FACE " ON UNIT  53 AT TIME STEP 77, STRESS PERIOD   3
1
              HEAD IN LAYER   1 AT END OF TIME STEP  77 IN STRESS PERIOD    3
  ---------------------------------------------------------------------------

            1           2           3           4           5
 ............................................................
   1    9.998       7.499       5.000       2.502      2.9983E-03
   2    9.998       7.499       5.000       2.502      2.9983E-03
   3    9.998       7.499       5.000       2.502      2.9983E-03
   4    9.998       7.499       5.000       2.502      2.9983E-03
   5    9.998       7.499       5.000       2.502      2.9983E-03
1
              HEAD IN LAYER   2 AT END OF TIME STEP  77 IN STRESS PERIOD    3
  ---------------------------------------------------------------------------

            1           2           3           4           5
 ............................................................
   1    9.998       7.499       5.000       2.502      2.9983E-03
   2    9.998       7.499       5.000       2.502      2.9983E-03
   3    9.998       7.499       5.000       2.502      2.9983E-03
   4    9.998       7.499       5.000       2.502      2.9983E-03
   5    9.998       7.499       5.000       2.502      2.9983E-03
1
              HEAD IN LAYER   3 AT END OF TIME STEP  77 IN STRESS PERIOD    3
  ---------------------------------------------------------------------------

            1           2           3           4           5
 ............................................................
   1    9.998       7.499       5.000       2.502      2.9983E-03
   2    9.998       7.499       5.000       2.502      2.9983E-03
   3    9.998       7.499       5.000       2.502      2.9983E-03
   4    9.998       7.499       5.000       2.502      2.9983E-03
   5    9.998       7.499       5.000       2.502      2.9983E-03
1
              HEAD IN LAYER   4 AT END OF TIME STEP  77 IN STRESS PERIOD    3
  ---------------------------------------------------------------------------

            1           2           3           4           5
 ............................................................
   1    9.998       7.499       5.000       2.502      2.9983E-03
   2    9.998       7.499       5.000       2.502      2.9983E-03
   3    9.998       7.499       5.000       2.502      2.9983E-03
   4    9.998       7.499       5.000       2.502      2.9983E-03
   5    9.998       7.499       5.000       2.502      2.9983E-03
1
              HEAD IN LAYER   5 AT END OF TIME STEP  77 IN STRESS PERIOD    3
  ---------------------------------------------------------------------------

            1           2           3           4           5
 ............................................................
   1    9.998       7.499       5.000       2.502      2.9983E-03
   2    9.998       7.499       5.000       2.502      2.9983E-03
   3    9.998       7.499       5.000       2.502      2.9983E-03
   4    9.998       7.499       5.000       2.502      2.9983E-03
   5    9.998       7.499       5.000       2.502      2.9983E-03

 HEAD WILL BE SAVED ON UNIT   51 AT END OF TIME STEP   77, STRESS PERIOD    3

 DRAWDOWN WILL BE SAVED ON UNIT   52 AT END OF TIME STEP   77, STRESS PERIOD    3
1
  VOLUMETRIC BUDGET FOR ENTIRE MODEL AT END OF TIME STEP   77, STRESS PERIOD   3
  ------------------------------------------------------------------------------

     CUMULATIVE VOLUMES      L**3       RATES FOR THIS TIME STEP      L**3/T
     ------------------                 ------------------------

           IN:                                      IN:
           ---                                      ---
             STORAGE =           0.0000               STORAGE =           0.0000
       CONSTANT HEAD =           0.0000         CONSTANT HEAD =           0.0000
               WELLS =           0.0000                 WELLS =           0.0000
     HEAD DEP BOUNDS =      144289.4219       HEAD DEP BOUNDS =         749.5200

            TOTAL IN =      144289.4219              TOTAL IN =         749.5200

          OUT:                                     OUT:
          ----                                     ----
             STORAGE =       15001.0791               STORAGE =           0.0000
       CONSTANT HEAD =           0.0000         CONSTANT HEAD =           0.0000
               WELLS =           0.0000                 WELLS =           0.0000
     HEAD DEP BOUNDS =      129297.4609       HEAD DEP BOUNDS =         749.5873

           TOTAL OUT =      144298.5469             TOTAL OUT =         749.5873

            IN - OUT =          -9.1250              IN - OUT =      -6.7383E-02

 PERCENT DISCREPANCY =          -0.01     PERCENT DISCREPANCY =          -0.01






         TIME SUMMARY AT END OF TIME STEP   77 IN STRESS PERIOD    3
                    SECONDS     MINUTES      HOURS       DAYS        YEARS
                    -----------------------------------------------------------
   TIME STEP LENGTH  86400.      1440.0      24.000      1.0000     2.73785E-03
 STRESS PERIOD TIME 6.65280E+06 1.10880E+05  1848.0      77.000     0.21081    
         TOTAL TIME 1.53792E+07 2.56320E+05  4272.0      178.00     0.48734    
1
 
 SOLVING FOR HEAD 

 OUTPUT CONTROL FOR STRESS PERIOD    3   TIME STEP   78
    SAVE HEAD FOR ALL LAYERS
    SAVE DRAWDOWN FOR ALL LAYERS
    SAVE BUDGET
    PRINT HEAD FOR ALL LAYERS
    PRINT BUDGET
 UBDSV1 SAVING "         STORAGE" ON UNIT  53 AT TIME STEP 78, STRESS PERIOD   3
 UBDSV2 SAVING "   CONSTANT HEAD" ON UNIT  53 AT TIME STEP 78, STRESS PERIOD   3
 UBDSV1 SAVING "FLOW RIGHT FACE " ON UNIT  53 AT TIME STEP 78, STRESS PERIOD   3
 UBDSV1 SAVING "FLOW FRONT FACE " ON UNIT  53 AT TIME STEP 78, STRESS PERIOD   3
 UBDSV1 SAVING "FLOW LOWER FACE " ON UNIT  53 AT TIME STEP 78, STRESS PERIOD   3
1
              HEAD IN LAYER   1 AT END OF TIME STEP  78 IN STRESS PERIOD    3
  ---------------------------------------------------------------------------

            1           2           3           4           5
 ............................................................
   1    9.998       7.499       5.000       2.502      2.9983E-03
   2    9.998       7.499       5.000       2.502      2.9983E-03
   3    9.998       7.499       5.000       2.502      2.9983E-03
   4    9.998       7.499       5.000       2.502      2.9983E-03
   5    9.998       7.499       5.000       2.502      2.9983E-03
1
              HEAD IN LAYER   2 AT END OF TIME STEP  78 IN STRESS PERIOD    3
  ---------------------------------------------------------------------------

            1           2           3           4           5
 ............................................................
   1    9.998       7.499       5.000       2.502      2.9983E-03
   2    9.998       7.499       5.000       2.502      2.9983E-03
   3    9.998       7.499       5.000       2.502      2.9983E-03
   4    9.998       7.499       5.000       2.502      2.9983E-03
   5    9.998       7.499       5.000       2.502      2.9983E-03
1
              HEAD IN LAYER   3 AT END OF TIME STEP  78 IN STRESS PERIOD    3
  ---------------------------------------------------------------------------

            1           2           3           4           5
 ............................................................
   1    9.998       7.499       5.000       2.502      2.9983E-03
   2    9.998       7.499       5.000       2.502      2.9983E-03
   3    9.998       7.499       5.000       2.502      2.9983E-03
   4    9.998       7.499       5.000       2.502      2.9983E-03
   5    9.998       7.499       5.000       2.502      2.9983E-03
1
              HEAD IN LAYER   4 AT END OF TIME STEP  78 IN STRESS PERIOD    3
  ---------------------------------------------------------------------------

            1           2           3           4           5
 ............................................................
   1    9.998       7.499       5.000       2.502      2.9983E-03
   2    9.998       7.499       5.000       2.502      2.9983E-03
   3    9.998       7.499       5.000       2.502      2.9983E-03
   4    9.998       7.499       5.000       2.502      2.9983E-03
   5    9.998       7.499       5.000       2.502      2.9983E-03
1
              HEAD IN LAYER   5 AT END OF TIME STEP  78 IN STRESS PERIOD    3
  ---------------------------------------------------------------------------

            1           2           3           4           5
 ............................................................
   1    9.998       7.499       5.000       2.502      2.9983E-03
   2    9.998       7.499       5.000       2.502      2.9983E-03
   3    9.998       7.499       5.000       2.502      2.9983E-03
   4    9.998       7.499       5.000       2.502      2.9983E-03
   5    9.998       7.499       5.000       2.502      2.9983E-03

 HEAD WILL BE SAVED ON UNIT   51 AT END OF TIME STEP   78, STRESS PERIOD    3

 DRAWDOWN WILL BE SAVED ON UNIT   52 AT END OF TIME STEP   78, STRESS PERIOD    3
1
  VOLUMETRIC BUDGET FOR ENTIRE MODEL AT END OF TIME STEP   78, STRESS PERIOD   3
  ------------------------------------------------------------------------------

     CUMULATIVE VOLUMES      L**3       RATES FOR THIS TIME STEP      L**3/T
     ------------------                 ------------------------

           IN:                                      IN:
           ---                                      ---
             STORAGE =           0.0000               STORAGE =           0.0000
       CONSTANT HEAD =           0.0000         CONSTANT HEAD =           0.0000
               WELLS =           0.0000                 WELLS =           0.0000
     HEAD DEP BOUNDS =      145038.9375       HEAD DEP BOUNDS =         749.5200

            TOTAL IN =      145038.9375              TOTAL IN =         749.5200

          OUT:                                     OUT:
          ----                                     ----
             STORAGE =       15001.0791               STORAGE =           0.0000
       CONSTANT HEAD =           0.0000         CONSTANT HEAD =           0.0000
               WELLS =           0.0000                 WELLS =           0.0000
     HEAD DEP BOUNDS =      130047.0469       HEAD DEP BOUNDS =         749.5873

           TOTAL OUT =      145048.1250             TOTAL OUT =         749.5873

            IN - OUT =          -9.1875              IN - OUT =      -6.7383E-02

 PERCENT DISCREPANCY =          -0.01     PERCENT DISCREPANCY =          -0.01






         TIME SUMMARY AT END OF TIME STEP   78 IN STRESS PERIOD    3
                    SECONDS     MINUTES      HOURS       DAYS        YEARS
                    -----------------------------------------------------------
   TIME STEP LENGTH  86400.      1440.0      24.000      1.0000     2.73785E-03
 STRESS PERIOD TIME 6.73920E+06 1.12320E+05  1872.0      78.000     0.21355    
         TOTAL TIME 1.54656E+07 2.57760E+05  4296.0      179.00     0.49008    
1
 
 SOLVING FOR HEAD 

 OUTPUT CONTROL FOR STRESS PERIOD    3   TIME STEP   79
    SAVE HEAD FOR ALL LAYERS
    SAVE DRAWDOWN FOR ALL LAYERS
    SAVE BUDGET
    PRINT HEAD FOR ALL LAYERS
    PRINT BUDGET
 UBDSV1 SAVING "         STORAGE" ON UNIT  53 AT TIME STEP 79, STRESS PERIOD   3
 UBDSV2 SAVING "   CONSTANT HEAD" ON UNIT  53 AT TIME STEP 79, STRESS PERIOD   3
 UBDSV1 SAVING "FLOW RIGHT FACE " ON UNIT  53 AT TIME STEP 79, STRESS PERIOD   3
 UBDSV1 SAVING "FLOW FRONT FACE " ON UNIT  53 AT TIME STEP 79, STRESS PERIOD   3
 UBDSV1 SAVING "FLOW LOWER FACE " ON UNIT  53 AT TIME STEP 79, STRESS PERIOD   3
1
              HEAD IN LAYER   1 AT END OF TIME STEP  79 IN STRESS PERIOD    3
  ---------------------------------------------------------------------------

            1           2           3           4           5
 ............................................................
   1    9.998       7.499       5.000       2.502      2.9983E-03
   2    9.998       7.499       5.000       2.502      2.9983E-03
   3    9.998       7.499       5.000       2.502      2.9983E-03
   4    9.998       7.499       5.000       2.502      2.9983E-03
   5    9.998       7.499       5.000       2.502      2.9983E-03
1
              HEAD IN LAYER   2 AT END OF TIME STEP  79 IN STRESS PERIOD    3
  ---------------------------------------------------------------------------

            1           2           3           4           5
 ............................................................
   1    9.998       7.499       5.000       2.502      2.9983E-03
   2    9.998       7.499       5.000       2.502      2.9983E-03
   3    9.998       7.499       5.000       2.502      2.9983E-03
   4    9.998       7.499       5.000       2.502      2.9983E-03
   5    9.998       7.499       5.000       2.502      2.9983E-03
1
              HEAD IN LAYER   3 AT END OF TIME STEP  79 IN STRESS PERIOD    3
  ---------------------------------------------------------------------------

            1           2           3           4           5
 ............................................................
   1    9.998       7.499       5.000       2.502      2.9983E-03
   2    9.998       7.499       5.000       2.502      2.9983E-03
   3    9.998       7.499       5.000       2.502      2.9983E-03
   4    9.998       7.499       5.000       2.502      2.9983E-03
   5    9.998       7.499       5.000       2.502      2.9983E-03
1
              HEAD IN LAYER   4 AT END OF TIME STEP  79 IN STRESS PERIOD    3
  ---------------------------------------------------------------------------

            1           2           3           4           5
 ............................................................
   1    9.998       7.499       5.000       2.502      2.9983E-03
   2    9.998       7.499       5.000       2.502      2.9983E-03
   3    9.998       7.499       5.000       2.502      2.9983E-03
   4    9.998       7.499       5.000       2.502      2.9983E-03
   5    9.998       7.499       5.000       2.502      2.9983E-03
1
              HEAD IN LAYER   5 AT END OF TIME STEP  79 IN STRESS PERIOD    3
  ---------------------------------------------------------------------------

            1           2           3           4           5
 ............................................................
   1    9.998       7.499       5.000       2.502      2.9983E-03
   2    9.998       7.499       5.000       2.502      2.9983E-03
   3    9.998       7.499       5.000       2.502      2.9983E-03
   4    9.998       7.499       5.000       2.502      2.9983E-03
   5    9.998       7.499       5.000       2.502      2.9983E-03

 HEAD WILL BE SAVED ON UNIT   51 AT END OF TIME STEP   79, STRESS PERIOD    3

 DRAWDOWN WILL BE SAVED ON UNIT   52 AT END OF TIME STEP   79, STRESS PERIOD    3
1
  VOLUMETRIC BUDGET FOR ENTIRE MODEL AT END OF TIME STEP   79, STRESS PERIOD   3
  ------------------------------------------------------------------------------

     CUMULATIVE VOLUMES      L**3       RATES FOR THIS TIME STEP      L**3/T
     ------------------                 ------------------------

           IN:                                      IN:
           ---                                      ---
             STORAGE =           0.0000               STORAGE =           0.0000
       CONSTANT HEAD =           0.0000         CONSTANT HEAD =           0.0000
               WELLS =           0.0000                 WELLS =           0.0000
     HEAD DEP BOUNDS =      145788.4531       HEAD DEP BOUNDS =         749.5200

            TOTAL IN =      145788.4531              TOTAL IN =         749.5200

          OUT:                                     OUT:
          ----                                     ----
             STORAGE =       15001.0791               STORAGE =           0.0000
       CONSTANT HEAD =           0.0000         CONSTANT HEAD =           0.0000
               WELLS =           0.0000                 WELLS =           0.0000
     HEAD DEP BOUNDS =      130796.6328       HEAD DEP BOUNDS =         749.5873

           TOTAL OUT =      145797.7188             TOTAL OUT =         749.5873

            IN - OUT =          -9.2656              IN - OUT =      -6.7383E-02

 PERCENT DISCREPANCY =          -0.01     PERCENT DISCREPANCY =          -0.01






         TIME SUMMARY AT END OF TIME STEP   79 IN STRESS PERIOD    3
                    SECONDS     MINUTES      HOURS       DAYS        YEARS
                    -----------------------------------------------------------
   TIME STEP LENGTH  86400.      1440.0      24.000      1.0000     2.73785E-03
 STRESS PERIOD TIME 6.82560E+06 1.13760E+05  1896.0      79.000     0.21629    
         TOTAL TIME 1.55520E+07 2.59200E+05  4320.0      180.00     0.49281    
1
 
 SOLVING FOR HEAD 

 OUTPUT CONTROL FOR STRESS PERIOD    3   TIME STEP   80
    SAVE HEAD FOR ALL LAYERS
    SAVE DRAWDOWN FOR ALL LAYERS
    SAVE BUDGET
    PRINT HEAD FOR ALL LAYERS
    PRINT BUDGET
 UBDSV1 SAVING "         STORAGE" ON UNIT  53 AT TIME STEP 80, STRESS PERIOD   3
 UBDSV2 SAVING "   CONSTANT HEAD" ON UNIT  53 AT TIME STEP 80, STRESS PERIOD   3
 UBDSV1 SAVING "FLOW RIGHT FACE " ON UNIT  53 AT TIME STEP 80, STRESS PERIOD   3
 UBDSV1 SAVING "FLOW FRONT FACE " ON UNIT  53 AT TIME STEP 80, STRESS PERIOD   3
 UBDSV1 SAVING "FLOW LOWER FACE " ON UNIT  53 AT TIME STEP 80, STRESS PERIOD   3
1
              HEAD IN LAYER   1 AT END OF TIME STEP  80 IN STRESS PERIOD    3
  ---------------------------------------------------------------------------

            1           2           3           4           5
 ............................................................
   1    9.998       7.499       5.000       2.502      2.9983E-03
   2    9.998       7.499       5.000       2.502      2.9983E-03
   3    9.998       7.499       5.000       2.502      2.9983E-03
   4    9.998       7.499       5.000       2.502      2.9983E-03
   5    9.998       7.499       5.000       2.502      2.9983E-03
1
              HEAD IN LAYER   2 AT END OF TIME STEP  80 IN STRESS PERIOD    3
  ---------------------------------------------------------------------------

            1           2           3           4           5
 ............................................................
   1    9.998       7.499       5.000       2.502      2.9983E-03
   2    9.998       7.499       5.000       2.502      2.9983E-03
   3    9.998       7.499       5.000       2.502      2.9983E-03
   4    9.998       7.499       5.000       2.502      2.9983E-03
   5    9.998       7.499       5.000       2.502      2.9983E-03
1
              HEAD IN LAYER   3 AT END OF TIME STEP  80 IN STRESS PERIOD    3
  ---------------------------------------------------------------------------

            1           2           3           4           5
 ............................................................
   1    9.998       7.499       5.000       2.502      2.9983E-03
   2    9.998       7.499       5.000       2.502      2.9983E-03
   3    9.998       7.499       5.000       2.502      2.9983E-03
   4    9.998       7.499       5.000       2.502      2.9983E-03
   5    9.998       7.499       5.000       2.502      2.9983E-03
1
              HEAD IN LAYER   4 AT END OF TIME STEP  80 IN STRESS PERIOD    3
  ---------------------------------------------------------------------------

            1           2           3           4           5
 ............................................................
   1    9.998       7.499       5.000       2.502      2.9983E-03
   2    9.998       7.499       5.000       2.502      2.9983E-03
   3    9.998       7.499       5.000       2.502      2.9983E-03
   4    9.998       7.499       5.000       2.502      2.9983E-03
   5    9.998       7.499       5.000       2.502      2.9983E-03
1
              HEAD IN LAYER   5 AT END OF TIME STEP  80 IN STRESS PERIOD    3
  ---------------------------------------------------------------------------

            1           2           3           4           5
 ............................................................
   1    9.998       7.499       5.000       2.502      2.9983E-03
   2    9.998       7.499       5.000       2.502      2.9983E-03
   3    9.998       7.499       5.000       2.502      2.9983E-03
   4    9.998       7.499       5.000       2.502      2.9983E-03
   5    9.998       7.499       5.000       2.502      2.9983E-03

 HEAD WILL BE SAVED ON UNIT   51 AT END OF TIME STEP   80, STRESS PERIOD    3

 DRAWDOWN WILL BE SAVED ON UNIT   52 AT END OF TIME STEP   80, STRESS PERIOD    3
1
  VOLUMETRIC BUDGET FOR ENTIRE MODEL AT END OF TIME STEP   80, STRESS PERIOD   3
  ------------------------------------------------------------------------------

     CUMULATIVE VOLUMES      L**3       RATES FOR THIS TIME STEP      L**3/T
     ------------------                 ------------------------

           IN:                                      IN:
           ---                                      ---
             STORAGE =           0.0000               STORAGE =           0.0000
       CONSTANT HEAD =           0.0000         CONSTANT HEAD =           0.0000
               WELLS =           0.0000                 WELLS =           0.0000
     HEAD DEP BOUNDS =      146537.9688       HEAD DEP BOUNDS =         749.5200

            TOTAL IN =      146537.9688              TOTAL IN =         749.5200

          OUT:                                     OUT:
          ----                                     ----
             STORAGE =       15001.0791               STORAGE =           0.0000
       CONSTANT HEAD =           0.0000         CONSTANT HEAD =           0.0000
               WELLS =           0.0000                 WELLS =           0.0000
     HEAD DEP BOUNDS =      131546.2188       HEAD DEP BOUNDS =         749.5873

           TOTAL OUT =      146547.2969             TOTAL OUT =         749.5873

            IN - OUT =          -9.3281              IN - OUT =      -6.7383E-02

 PERCENT DISCREPANCY =          -0.01     PERCENT DISCREPANCY =          -0.01






         TIME SUMMARY AT END OF TIME STEP   80 IN STRESS PERIOD    3
                    SECONDS     MINUTES      HOURS       DAYS        YEARS
                    -----------------------------------------------------------
   TIME STEP LENGTH  86400.      1440.0      24.000      1.0000     2.73785E-03
 STRESS PERIOD TIME 6.91200E+06 1.15200E+05  1920.0      80.000     0.21903    
         TOTAL TIME 1.56384E+07 2.60640E+05  4344.0      181.00     0.49555    
1
 
 SOLVING FOR HEAD 

 OUTPUT CONTROL FOR STRESS PERIOD    3   TIME STEP   81
    SAVE HEAD FOR ALL LAYERS
    SAVE DRAWDOWN FOR ALL LAYERS
    SAVE BUDGET
    PRINT HEAD FOR ALL LAYERS
    PRINT BUDGET
 UBDSV1 SAVING "         STORAGE" ON UNIT  53 AT TIME STEP 81, STRESS PERIOD   3
 UBDSV2 SAVING "   CONSTANT HEAD" ON UNIT  53 AT TIME STEP 81, STRESS PERIOD   3
 UBDSV1 SAVING "FLOW RIGHT FACE " ON UNIT  53 AT TIME STEP 81, STRESS PERIOD   3
 UBDSV1 SAVING "FLOW FRONT FACE " ON UNIT  53 AT TIME STEP 81, STRESS PERIOD   3
 UBDSV1 SAVING "FLOW LOWER FACE " ON UNIT  53 AT TIME STEP 81, STRESS PERIOD   3
1
              HEAD IN LAYER   1 AT END OF TIME STEP  81 IN STRESS PERIOD    3
  ---------------------------------------------------------------------------

            1           2           3           4           5
 ............................................................
   1    9.998       7.499       5.000       2.502      2.9983E-03
   2    9.998       7.499       5.000       2.502      2.9983E-03
   3    9.998       7.499       5.000       2.502      2.9983E-03
   4    9.998       7.499       5.000       2.502      2.9983E-03
   5    9.998       7.499       5.000       2.502      2.9983E-03
1
              HEAD IN LAYER   2 AT END OF TIME STEP  81 IN STRESS PERIOD    3
  ---------------------------------------------------------------------------

            1           2           3           4           5
 ............................................................
   1    9.998       7.499       5.000       2.502      2.9983E-03
   2    9.998       7.499       5.000       2.502      2.9983E-03
   3    9.998       7.499       5.000       2.502      2.9983E-03
   4    9.998       7.499       5.000       2.502      2.9983E-03
   5    9.998       7.499       5.000       2.502      2.9983E-03
1
              HEAD IN LAYER   3 AT END OF TIME STEP  81 IN STRESS PERIOD    3
  ---------------------------------------------------------------------------

            1           2           3           4           5
 ............................................................
   1    9.998       7.499       5.000       2.502      2.9983E-03
   2    9.998       7.499       5.000       2.502      2.9983E-03
   3    9.998       7.499       5.000       2.502      2.9983E-03
   4    9.998       7.499       5.000       2.502      2.9983E-03
   5    9.998       7.499       5.000       2.502      2.9983E-03
1
              HEAD IN LAYER   4 AT END OF TIME STEP  81 IN STRESS PERIOD    3
  ---------------------------------------------------------------------------

            1           2           3           4           5
 ............................................................
   1    9.998       7.499       5.000       2.502      2.9983E-03
   2    9.998       7.499       5.000       2.502      2.9983E-03
   3    9.998       7.499       5.000       2.502      2.9983E-03
   4    9.998       7.499       5.000       2.502      2.9983E-03
   5    9.998       7.499       5.000       2.502      2.9983E-03
1
              HEAD IN LAYER   5 AT END OF TIME STEP  81 IN STRESS PERIOD    3
  ---------------------------------------------------------------------------

            1           2           3           4           5
 ............................................................
   1    9.998       7.499       5.000       2.502      2.9983E-03
   2    9.998       7.499       5.000       2.502      2.9983E-03
   3    9.998       7.499       5.000       2.502      2.9983E-03
   4    9.998       7.499       5.000       2.502      2.9983E-03
   5    9.998       7.499       5.000       2.502      2.9983E-03

 HEAD WILL BE SAVED ON UNIT   51 AT END OF TIME STEP   81, STRESS PERIOD    3

 DRAWDOWN WILL BE SAVED ON UNIT   52 AT END OF TIME STEP   81, STRESS PERIOD    3
1
  VOLUMETRIC BUDGET FOR ENTIRE MODEL AT END OF TIME STEP   81, STRESS PERIOD   3
  ------------------------------------------------------------------------------

     CUMULATIVE VOLUMES      L**3       RATES FOR THIS TIME STEP      L**3/T
     ------------------                 ------------------------

           IN:                                      IN:
           ---                                      ---
             STORAGE =           0.0000               STORAGE =           0.0000
       CONSTANT HEAD =           0.0000         CONSTANT HEAD =           0.0000
               WELLS =           0.0000                 WELLS =           0.0000
     HEAD DEP BOUNDS =      147287.4844       HEAD DEP BOUNDS =         749.5200

            TOTAL IN =      147287.4844              TOTAL IN =         749.5200

          OUT:                                     OUT:
          ----                                     ----
             STORAGE =       15001.0791               STORAGE =           0.0000
       CONSTANT HEAD =           0.0000         CONSTANT HEAD =           0.0000
               WELLS =           0.0000                 WELLS =           0.0000
     HEAD DEP BOUNDS =      132295.8125       HEAD DEP BOUNDS =         749.5873

           TOTAL OUT =      147296.8906             TOTAL OUT =         749.5873

            IN - OUT =          -9.4062              IN - OUT =      -6.7383E-02

 PERCENT DISCREPANCY =          -0.01     PERCENT DISCREPANCY =          -0.01






         TIME SUMMARY AT END OF TIME STEP   81 IN STRESS PERIOD    3
                    SECONDS     MINUTES      HOURS       DAYS        YEARS
                    -----------------------------------------------------------
   TIME STEP LENGTH  86400.      1440.0      24.000      1.0000     2.73785E-03
 STRESS PERIOD TIME 6.99840E+06 1.16640E+05  1944.0      81.000     0.22177    
         TOTAL TIME 1.57248E+07 2.62080E+05  4368.0      182.00     0.49829    
1
 
 SOLVING FOR HEAD 

 OUTPUT CONTROL FOR STRESS PERIOD    3   TIME STEP   82
    SAVE HEAD FOR ALL LAYERS
    SAVE DRAWDOWN FOR ALL LAYERS
    SAVE BUDGET
    PRINT HEAD FOR ALL LAYERS
    PRINT BUDGET
 UBDSV1 SAVING "         STORAGE" ON UNIT  53 AT TIME STEP 82, STRESS PERIOD   3
 UBDSV2 SAVING "   CONSTANT HEAD" ON UNIT  53 AT TIME STEP 82, STRESS PERIOD   3
 UBDSV1 SAVING "FLOW RIGHT FACE " ON UNIT  53 AT TIME STEP 82, STRESS PERIOD   3
 UBDSV1 SAVING "FLOW FRONT FACE " ON UNIT  53 AT TIME STEP 82, STRESS PERIOD   3
 UBDSV1 SAVING "FLOW LOWER FACE " ON UNIT  53 AT TIME STEP 82, STRESS PERIOD   3
1
              HEAD IN LAYER   1 AT END OF TIME STEP  82 IN STRESS PERIOD    3
  ---------------------------------------------------------------------------

            1           2           3           4           5
 ............................................................
   1    9.998       7.499       5.000       2.502      2.9983E-03
   2    9.998       7.499       5.000       2.502      2.9983E-03
   3    9.998       7.499       5.000       2.502      2.9983E-03
   4    9.998       7.499       5.000       2.502      2.9983E-03
   5    9.998       7.499       5.000       2.502      2.9983E-03
1
              HEAD IN LAYER   2 AT END OF TIME STEP  82 IN STRESS PERIOD    3
  ---------------------------------------------------------------------------

            1           2           3           4           5
 ............................................................
   1    9.998       7.499       5.000       2.502      2.9983E-03
   2    9.998       7.499       5.000       2.502      2.9983E-03
   3    9.998       7.499       5.000       2.502      2.9983E-03
   4    9.998       7.499       5.000       2.502      2.9983E-03
   5    9.998       7.499       5.000       2.502      2.9983E-03
1
              HEAD IN LAYER   3 AT END OF TIME STEP  82 IN STRESS PERIOD    3
  ---------------------------------------------------------------------------

            1           2           3           4           5
 ............................................................
   1    9.998       7.499       5.000       2.502      2.9983E-03
   2    9.998       7.499       5.000       2.502      2.9983E-03
   3    9.998       7.499       5.000       2.502      2.9983E-03
   4    9.998       7.499       5.000       2.502      2.9983E-03
   5    9.998       7.499       5.000       2.502      2.9983E-03
1
              HEAD IN LAYER   4 AT END OF TIME STEP  82 IN STRESS PERIOD    3
  ---------------------------------------------------------------------------

            1           2           3           4           5
 ............................................................
   1    9.998       7.499       5.000       2.502      2.9983E-03
   2    9.998       7.499       5.000       2.502      2.9983E-03
   3    9.998       7.499       5.000       2.502      2.9983E-03
   4    9.998       7.499       5.000       2.502      2.9983E-03
   5    9.998       7.499       5.000       2.502      2.9983E-03
1
              HEAD IN LAYER   5 AT END OF TIME STEP  82 IN STRESS PERIOD    3
  ---------------------------------------------------------------------------

            1           2           3           4           5
 ............................................................
   1    9.998       7.499       5.000       2.502      2.9983E-03
   2    9.998       7.499       5.000       2.502      2.9983E-03
   3    9.998       7.499       5.000       2.502      2.9983E-03
   4    9.998       7.499       5.000       2.502      2.9983E-03
   5    9.998       7.499       5.000       2.502      2.9983E-03

 HEAD WILL BE SAVED ON UNIT   51 AT END OF TIME STEP   82, STRESS PERIOD    3

 DRAWDOWN WILL BE SAVED ON UNIT   52 AT END OF TIME STEP   82, STRESS PERIOD    3
1
  VOLUMETRIC BUDGET FOR ENTIRE MODEL AT END OF TIME STEP   82, STRESS PERIOD   3
  ------------------------------------------------------------------------------

     CUMULATIVE VOLUMES      L**3       RATES FOR THIS TIME STEP      L**3/T
     ------------------                 ------------------------

           IN:                                      IN:
           ---                                      ---
             STORAGE =           0.0000               STORAGE =           0.0000
       CONSTANT HEAD =           0.0000         CONSTANT HEAD =           0.0000
               WELLS =           0.0000                 WELLS =           0.0000
     HEAD DEP BOUNDS =      148037.0000       HEAD DEP BOUNDS =         749.5200

            TOTAL IN =      148037.0000              TOTAL IN =         749.5200

          OUT:                                     OUT:
          ----                                     ----
             STORAGE =       15001.0791               STORAGE =           0.0000
       CONSTANT HEAD =           0.0000         CONSTANT HEAD =           0.0000
               WELLS =           0.0000                 WELLS =           0.0000
     HEAD DEP BOUNDS =      133045.4062       HEAD DEP BOUNDS =         749.5873

           TOTAL OUT =      148046.4844             TOTAL OUT =         749.5873

            IN - OUT =          -9.4844              IN - OUT =      -6.7383E-02

 PERCENT DISCREPANCY =          -0.01     PERCENT DISCREPANCY =          -0.01






         TIME SUMMARY AT END OF TIME STEP   82 IN STRESS PERIOD    3
                    SECONDS     MINUTES      HOURS       DAYS        YEARS
                    -----------------------------------------------------------
   TIME STEP LENGTH  86400.      1440.0      24.000      1.0000     2.73785E-03
 STRESS PERIOD TIME 7.08480E+06 1.18080E+05  1968.0      82.000     0.22450    
         TOTAL TIME 1.58112E+07 2.63520E+05  4392.0      183.00     0.50103    
1
 
 SOLVING FOR HEAD 

 OUTPUT CONTROL FOR STRESS PERIOD    3   TIME STEP   83
    SAVE HEAD FOR ALL LAYERS
    SAVE DRAWDOWN FOR ALL LAYERS
    SAVE BUDGET
    PRINT HEAD FOR ALL LAYERS
    PRINT BUDGET
 UBDSV1 SAVING "         STORAGE" ON UNIT  53 AT TIME STEP 83, STRESS PERIOD   3
 UBDSV2 SAVING "   CONSTANT HEAD" ON UNIT  53 AT TIME STEP 83, STRESS PERIOD   3
 UBDSV1 SAVING "FLOW RIGHT FACE " ON UNIT  53 AT TIME STEP 83, STRESS PERIOD   3
 UBDSV1 SAVING "FLOW FRONT FACE " ON UNIT  53 AT TIME STEP 83, STRESS PERIOD   3
 UBDSV1 SAVING "FLOW LOWER FACE " ON UNIT  53 AT TIME STEP 83, STRESS PERIOD   3
1
              HEAD IN LAYER   1 AT END OF TIME STEP  83 IN STRESS PERIOD    3
  ---------------------------------------------------------------------------

            1           2           3           4           5
 ............................................................
   1    9.998       7.499       5.000       2.502      2.9983E-03
   2    9.998       7.499       5.000       2.502      2.9983E-03
   3    9.998       7.499       5.000       2.502      2.9983E-03
   4    9.998       7.499       5.000       2.502      2.9983E-03
   5    9.998       7.499       5.000       2.502      2.9983E-03
1
              HEAD IN LAYER   2 AT END OF TIME STEP  83 IN STRESS PERIOD    3
  ---------------------------------------------------------------------------

            1           2           3           4           5
 ............................................................
   1    9.998       7.499       5.000       2.502      2.9983E-03
   2    9.998       7.499       5.000       2.502      2.9983E-03
   3    9.998       7.499       5.000       2.502      2.9983E-03
   4    9.998       7.499       5.000       2.502      2.9983E-03
   5    9.998       7.499       5.000       2.502      2.9983E-03
1
              HEAD IN LAYER   3 AT END OF TIME STEP  83 IN STRESS PERIOD    3
  ---------------------------------------------------------------------------

            1           2           3           4           5
 ............................................................
   1    9.998       7.499       5.000       2.502      2.9983E-03
   2    9.998       7.499       5.000       2.502      2.9983E-03
   3    9.998       7.499       5.000       2.502      2.9983E-03
   4    9.998       7.499       5.000       2.502      2.9983E-03
   5    9.998       7.499       5.000       2.502      2.9983E-03
1
              HEAD IN LAYER   4 AT END OF TIME STEP  83 IN STRESS PERIOD    3
  ---------------------------------------------------------------------------

            1           2           3           4           5
 ............................................................
   1    9.998       7.499       5.000       2.502      2.9983E-03
   2    9.998       7.499       5.000       2.502      2.9983E-03
   3    9.998       7.499       5.000       2.502      2.9983E-03
   4    9.998       7.499       5.000       2.502      2.9983E-03
   5    9.998       7.499       5.000       2.502      2.9983E-03
1
              HEAD IN LAYER   5 AT END OF TIME STEP  83 IN STRESS PERIOD    3
  ---------------------------------------------------------------------------

            1           2           3           4           5
 ............................................................
   1    9.998       7.499       5.000       2.502      2.9983E-03
   2    9.998       7.499       5.000       2.502      2.9983E-03
   3    9.998       7.499       5.000       2.502      2.9983E-03
   4    9.998       7.499       5.000       2.502      2.9983E-03
   5    9.998       7.499       5.000       2.502      2.9983E-03

 HEAD WILL BE SAVED ON UNIT   51 AT END OF TIME STEP   83, STRESS PERIOD    3

 DRAWDOWN WILL BE SAVED ON UNIT   52 AT END OF TIME STEP   83, STRESS PERIOD    3
1
  VOLUMETRIC BUDGET FOR ENTIRE MODEL AT END OF TIME STEP   83, STRESS PERIOD   3
  ------------------------------------------------------------------------------

     CUMULATIVE VOLUMES      L**3       RATES FOR THIS TIME STEP      L**3/T
     ------------------                 ------------------------

           IN:                                      IN:
           ---                                      ---
             STORAGE =           0.0000               STORAGE =           0.0000
       CONSTANT HEAD =           0.0000         CONSTANT HEAD =           0.0000
               WELLS =           0.0000                 WELLS =           0.0000
     HEAD DEP BOUNDS =      148786.5156       HEAD DEP BOUNDS =         749.5200

            TOTAL IN =      148786.5156              TOTAL IN =         749.5200

          OUT:                                     OUT:
          ----                                     ----
             STORAGE =       15001.0791               STORAGE =           0.0000
       CONSTANT HEAD =           0.0000         CONSTANT HEAD =           0.0000
               WELLS =           0.0000                 WELLS =           0.0000
     HEAD DEP BOUNDS =      133795.0000       HEAD DEP BOUNDS =         749.5873

           TOTAL OUT =      148796.0781             TOTAL OUT =         749.5873

            IN - OUT =          -9.5625              IN - OUT =      -6.7383E-02

 PERCENT DISCREPANCY =          -0.01     PERCENT DISCREPANCY =          -0.01






         TIME SUMMARY AT END OF TIME STEP   83 IN STRESS PERIOD    3
                    SECONDS     MINUTES      HOURS       DAYS        YEARS
                    -----------------------------------------------------------
   TIME STEP LENGTH  86400.      1440.0      24.000      1.0000     2.73785E-03
 STRESS PERIOD TIME 7.17120E+06 1.19520E+05  1992.0      83.000     0.22724    
         TOTAL TIME 1.58976E+07 2.64960E+05  4416.0      184.00     0.50376    
1
 
 SOLVING FOR HEAD 

 OUTPUT CONTROL FOR STRESS PERIOD    3   TIME STEP   84
    SAVE HEAD FOR ALL LAYERS
    SAVE DRAWDOWN FOR ALL LAYERS
    SAVE BUDGET
    PRINT HEAD FOR ALL LAYERS
    PRINT BUDGET
 UBDSV1 SAVING "         STORAGE" ON UNIT  53 AT TIME STEP 84, STRESS PERIOD   3
 UBDSV2 SAVING "   CONSTANT HEAD" ON UNIT  53 AT TIME STEP 84, STRESS PERIOD   3
 UBDSV1 SAVING "FLOW RIGHT FACE " ON UNIT  53 AT TIME STEP 84, STRESS PERIOD   3
 UBDSV1 SAVING "FLOW FRONT FACE " ON UNIT  53 AT TIME STEP 84, STRESS PERIOD   3
 UBDSV1 SAVING "FLOW LOWER FACE " ON UNIT  53 AT TIME STEP 84, STRESS PERIOD   3
1
              HEAD IN LAYER   1 AT END OF TIME STEP  84 IN STRESS PERIOD    3
  ---------------------------------------------------------------------------

            1           2           3           4           5
 ............................................................
   1    9.998       7.499       5.000       2.502      2.9983E-03
   2    9.998       7.499       5.000       2.502      2.9983E-03
   3    9.998       7.499       5.000       2.502      2.9983E-03
   4    9.998       7.499       5.000       2.502      2.9983E-03
   5    9.998       7.499       5.000       2.502      2.9983E-03
1
              HEAD IN LAYER   2 AT END OF TIME STEP  84 IN STRESS PERIOD    3
  ---------------------------------------------------------------------------

            1           2           3           4           5
 ............................................................
   1    9.998       7.499       5.000       2.502      2.9983E-03
   2    9.998       7.499       5.000       2.502      2.9983E-03
   3    9.998       7.499       5.000       2.502      2.9983E-03
   4    9.998       7.499       5.000       2.502      2.9983E-03
   5    9.998       7.499       5.000       2.502      2.9983E-03
1
              HEAD IN LAYER   3 AT END OF TIME STEP  84 IN STRESS PERIOD    3
  ---------------------------------------------------------------------------

            1           2           3           4           5
 ............................................................
   1    9.998       7.499       5.000       2.502      2.9983E-03
   2    9.998       7.499       5.000       2.502      2.9983E-03
   3    9.998       7.499       5.000       2.502      2.9983E-03
   4    9.998       7.499       5.000       2.502      2.9983E-03
   5    9.998       7.499       5.000       2.502      2.9983E-03
1
              HEAD IN LAYER   4 AT END OF TIME STEP  84 IN STRESS PERIOD    3
  ---------------------------------------------------------------------------

            1           2           3           4           5
 ............................................................
   1    9.998       7.499       5.000       2.502      2.9983E-03
   2    9.998       7.499       5.000       2.502      2.9983E-03
   3    9.998       7.499       5.000       2.502      2.9983E-03
   4    9.998       7.499       5.000       2.502      2.9983E-03
   5    9.998       7.499       5.000       2.502      2.9983E-03
1
              HEAD IN LAYER   5 AT END OF TIME STEP  84 IN STRESS PERIOD    3
  ---------------------------------------------------------------------------

            1           2           3           4           5
 ............................................................
   1    9.998       7.499       5.000       2.502      2.9983E-03
   2    9.998       7.499       5.000       2.502      2.9983E-03
   3    9.998       7.499       5.000       2.502      2.9983E-03
   4    9.998       7.499       5.000       2.502      2.9983E-03
   5    9.998       7.499       5.000       2.502      2.9983E-03

 HEAD WILL BE SAVED ON UNIT   51 AT END OF TIME STEP   84, STRESS PERIOD    3

 DRAWDOWN WILL BE SAVED ON UNIT   52 AT END OF TIME STEP   84, STRESS PERIOD    3
1
  VOLUMETRIC BUDGET FOR ENTIRE MODEL AT END OF TIME STEP   84, STRESS PERIOD   3
  ------------------------------------------------------------------------------

     CUMULATIVE VOLUMES      L**3       RATES FOR THIS TIME STEP      L**3/T
     ------------------                 ------------------------

           IN:                                      IN:
           ---                                      ---
             STORAGE =           0.0000               STORAGE =           0.0000
       CONSTANT HEAD =           0.0000         CONSTANT HEAD =           0.0000
               WELLS =           0.0000                 WELLS =           0.0000
     HEAD DEP BOUNDS =      149536.0312       HEAD DEP BOUNDS =         749.5200

            TOTAL IN =      149536.0312              TOTAL IN =         749.5200

          OUT:                                     OUT:
          ----                                     ----
             STORAGE =       15001.0791               STORAGE =           0.0000
       CONSTANT HEAD =           0.0000         CONSTANT HEAD =           0.0000
               WELLS =           0.0000                 WELLS =           0.0000
     HEAD DEP BOUNDS =      134544.5938       HEAD DEP BOUNDS =         749.5873

           TOTAL OUT =      149545.6719             TOTAL OUT =         749.5873

            IN - OUT =          -9.6406              IN - OUT =      -6.7383E-02

 PERCENT DISCREPANCY =          -0.01     PERCENT DISCREPANCY =          -0.01






         TIME SUMMARY AT END OF TIME STEP   84 IN STRESS PERIOD    3
                    SECONDS     MINUTES      HOURS       DAYS        YEARS
                    -----------------------------------------------------------
   TIME STEP LENGTH  86400.      1440.0      24.000      1.0000     2.73785E-03
 STRESS PERIOD TIME 7.25760E+06 1.20960E+05  2016.0      84.000     0.22998    
         TOTAL TIME 1.59840E+07 2.66400E+05  4440.0      185.00     0.50650    
1
 
 SOLVING FOR HEAD 

 OUTPUT CONTROL FOR STRESS PERIOD    3   TIME STEP   85
    SAVE HEAD FOR ALL LAYERS
    SAVE DRAWDOWN FOR ALL LAYERS
    SAVE BUDGET
    PRINT HEAD FOR ALL LAYERS
    PRINT BUDGET
 UBDSV1 SAVING "         STORAGE" ON UNIT  53 AT TIME STEP 85, STRESS PERIOD   3
 UBDSV2 SAVING "   CONSTANT HEAD" ON UNIT  53 AT TIME STEP 85, STRESS PERIOD   3
 UBDSV1 SAVING "FLOW RIGHT FACE " ON UNIT  53 AT TIME STEP 85, STRESS PERIOD   3
 UBDSV1 SAVING "FLOW FRONT FACE " ON UNIT  53 AT TIME STEP 85, STRESS PERIOD   3
 UBDSV1 SAVING "FLOW LOWER FACE " ON UNIT  53 AT TIME STEP 85, STRESS PERIOD   3
1
              HEAD IN LAYER   1 AT END OF TIME STEP  85 IN STRESS PERIOD    3
  ---------------------------------------------------------------------------

            1           2           3           4           5
 ............................................................
   1    9.998       7.499       5.000       2.502      2.9983E-03
   2    9.998       7.499       5.000       2.502      2.9983E-03
   3    9.998       7.499       5.000       2.502      2.9983E-03
   4    9.998       7.499       5.000       2.502      2.9983E-03
   5    9.998       7.499       5.000       2.502      2.9983E-03
1
              HEAD IN LAYER   2 AT END OF TIME STEP  85 IN STRESS PERIOD    3
  ---------------------------------------------------------------------------

            1           2           3           4           5
 ............................................................
   1    9.998       7.499       5.000       2.502      2.9983E-03
   2    9.998       7.499       5.000       2.502      2.9983E-03
   3    9.998       7.499       5.000       2.502      2.9983E-03
   4    9.998       7.499       5.000       2.502      2.9983E-03
   5    9.998       7.499       5.000       2.502      2.9983E-03
1
              HEAD IN LAYER   3 AT END OF TIME STEP  85 IN STRESS PERIOD    3
  ---------------------------------------------------------------------------

            1           2           3           4           5
 ............................................................
   1    9.998       7.499       5.000       2.502      2.9983E-03
   2    9.998       7.499       5.000       2.502      2.9983E-03
   3    9.998       7.499       5.000       2.502      2.9983E-03
   4    9.998       7.499       5.000       2.502      2.9983E-03
   5    9.998       7.499       5.000       2.502      2.9983E-03
1
              HEAD IN LAYER   4 AT END OF TIME STEP  85 IN STRESS PERIOD    3
  ---------------------------------------------------------------------------

            1           2           3           4           5
 ............................................................
   1    9.998       7.499       5.000       2.502      2.9983E-03
   2    9.998       7.499       5.000       2.502      2.9983E-03
   3    9.998       7.499       5.000       2.502      2.9983E-03
   4    9.998       7.499       5.000       2.502      2.9983E-03
   5    9.998       7.499       5.000       2.502      2.9983E-03
1
              HEAD IN LAYER   5 AT END OF TIME STEP  85 IN STRESS PERIOD    3
  ---------------------------------------------------------------------------

            1           2           3           4           5
 ............................................................
   1    9.998       7.499       5.000       2.502      2.9983E-03
   2    9.998       7.499       5.000       2.502      2.9983E-03
   3    9.998       7.499       5.000       2.502      2.9983E-03
   4    9.998       7.499       5.000       2.502      2.9983E-03
   5    9.998       7.499       5.000       2.502      2.9983E-03

 HEAD WILL BE SAVED ON UNIT   51 AT END OF TIME STEP   85, STRESS PERIOD    3

 DRAWDOWN WILL BE SAVED ON UNIT   52 AT END OF TIME STEP   85, STRESS PERIOD    3
1
  VOLUMETRIC BUDGET FOR ENTIRE MODEL AT END OF TIME STEP   85, STRESS PERIOD   3
  ------------------------------------------------------------------------------

     CUMULATIVE VOLUMES      L**3       RATES FOR THIS TIME STEP      L**3/T
     ------------------                 ------------------------

           IN:                                      IN:
           ---                                      ---
             STORAGE =           0.0000               STORAGE =           0.0000
       CONSTANT HEAD =           0.0000         CONSTANT HEAD =           0.0000
               WELLS =           0.0000                 WELLS =           0.0000
     HEAD DEP BOUNDS =      150285.5469       HEAD DEP BOUNDS =         749.5200

            TOTAL IN =      150285.5469              TOTAL IN =         749.5200

          OUT:                                     OUT:
          ----                                     ----
             STORAGE =       15001.0791               STORAGE =           0.0000
       CONSTANT HEAD =           0.0000         CONSTANT HEAD =           0.0000
               WELLS =           0.0000                 WELLS =           0.0000
     HEAD DEP BOUNDS =      135294.1875       HEAD DEP BOUNDS =         749.5873

           TOTAL OUT =      150295.2656             TOTAL OUT =         749.5873

            IN - OUT =          -9.7188              IN - OUT =      -6.7383E-02

 PERCENT DISCREPANCY =          -0.01     PERCENT DISCREPANCY =          -0.01






         TIME SUMMARY AT END OF TIME STEP   85 IN STRESS PERIOD    3
                    SECONDS     MINUTES      HOURS       DAYS        YEARS
                    -----------------------------------------------------------
   TIME STEP LENGTH  86400.      1440.0      24.000      1.0000     2.73785E-03
 STRESS PERIOD TIME 7.34400E+06 1.22400E+05  2040.0      85.000     0.23272    
         TOTAL TIME 1.60704E+07 2.67840E+05  4464.0      186.00     0.50924    
1
 
 SOLVING FOR HEAD 

 OUTPUT CONTROL FOR STRESS PERIOD    3   TIME STEP   86
    SAVE HEAD FOR ALL LAYERS
    SAVE DRAWDOWN FOR ALL LAYERS
    SAVE BUDGET
    PRINT HEAD FOR ALL LAYERS
    PRINT BUDGET
 UBDSV1 SAVING "         STORAGE" ON UNIT  53 AT TIME STEP 86, STRESS PERIOD   3
 UBDSV2 SAVING "   CONSTANT HEAD" ON UNIT  53 AT TIME STEP 86, STRESS PERIOD   3
 UBDSV1 SAVING "FLOW RIGHT FACE " ON UNIT  53 AT TIME STEP 86, STRESS PERIOD   3
 UBDSV1 SAVING "FLOW FRONT FACE " ON UNIT  53 AT TIME STEP 86, STRESS PERIOD   3
 UBDSV1 SAVING "FLOW LOWER FACE " ON UNIT  53 AT TIME STEP 86, STRESS PERIOD   3
1
              HEAD IN LAYER   1 AT END OF TIME STEP  86 IN STRESS PERIOD    3
  ---------------------------------------------------------------------------

            1           2           3           4           5
 ............................................................
   1    9.998       7.499       5.000       2.502      2.9983E-03
   2    9.998       7.499       5.000       2.502      2.9983E-03
   3    9.998       7.499       5.000       2.502      2.9983E-03
   4    9.998       7.499       5.000       2.502      2.9983E-03
   5    9.998       7.499       5.000       2.502      2.9983E-03
1
              HEAD IN LAYER   2 AT END OF TIME STEP  86 IN STRESS PERIOD    3
  ---------------------------------------------------------------------------

            1           2           3           4           5
 ............................................................
   1    9.998       7.499       5.000       2.502      2.9983E-03
   2    9.998       7.499       5.000       2.502      2.9983E-03
   3    9.998       7.499       5.000       2.502      2.9983E-03
   4    9.998       7.499       5.000       2.502      2.9983E-03
   5    9.998       7.499       5.000       2.502      2.9983E-03
1
              HEAD IN LAYER   3 AT END OF TIME STEP  86 IN STRESS PERIOD    3
  ---------------------------------------------------------------------------

            1           2           3           4           5
 ............................................................
   1    9.998       7.499       5.000       2.502      2.9983E-03
   2    9.998       7.499       5.000       2.502      2.9983E-03
   3    9.998       7.499       5.000       2.502      2.9983E-03
   4    9.998       7.499       5.000       2.502      2.9983E-03
   5    9.998       7.499       5.000       2.502      2.9983E-03
1
              HEAD IN LAYER   4 AT END OF TIME STEP  86 IN STRESS PERIOD    3
  ---------------------------------------------------------------------------

            1           2           3           4           5
 ............................................................
   1    9.998       7.499       5.000       2.502      2.9983E-03
   2    9.998       7.499       5.000       2.502      2.9983E-03
   3    9.998       7.499       5.000       2.502      2.9983E-03
   4    9.998       7.499       5.000       2.502      2.9983E-03
   5    9.998       7.499       5.000       2.502      2.9983E-03
1
              HEAD IN LAYER   5 AT END OF TIME STEP  86 IN STRESS PERIOD    3
  ---------------------------------------------------------------------------

            1           2           3           4           5
 ............................................................
   1    9.998       7.499       5.000       2.502      2.9983E-03
   2    9.998       7.499       5.000       2.502      2.9983E-03
   3    9.998       7.499       5.000       2.502      2.9983E-03
   4    9.998       7.499       5.000       2.502      2.9983E-03
   5    9.998       7.499       5.000       2.502      2.9983E-03

 HEAD WILL BE SAVED ON UNIT   51 AT END OF TIME STEP   86, STRESS PERIOD    3

 DRAWDOWN WILL BE SAVED ON UNIT   52 AT END OF TIME STEP   86, STRESS PERIOD    3
1
  VOLUMETRIC BUDGET FOR ENTIRE MODEL AT END OF TIME STEP   86, STRESS PERIOD   3
  ------------------------------------------------------------------------------

     CUMULATIVE VOLUMES      L**3       RATES FOR THIS TIME STEP      L**3/T
     ------------------                 ------------------------

           IN:                                      IN:
           ---                                      ---
             STORAGE =           0.0000               STORAGE =           0.0000
       CONSTANT HEAD =           0.0000         CONSTANT HEAD =           0.0000
               WELLS =           0.0000                 WELLS =           0.0000
     HEAD DEP BOUNDS =      151035.0625       HEAD DEP BOUNDS =         749.5200

            TOTAL IN =      151035.0625              TOTAL IN =         749.5200

          OUT:                                     OUT:
          ----                                     ----
             STORAGE =       15001.0791               STORAGE =           0.0000
       CONSTANT HEAD =           0.0000         CONSTANT HEAD =           0.0000
               WELLS =           0.0000                 WELLS =           0.0000
     HEAD DEP BOUNDS =      136043.7812       HEAD DEP BOUNDS =         749.5873

           TOTAL OUT =      151044.8594             TOTAL OUT =         749.5873

            IN - OUT =          -9.7969              IN - OUT =      -6.7383E-02

 PERCENT DISCREPANCY =          -0.01     PERCENT DISCREPANCY =          -0.01






         TIME SUMMARY AT END OF TIME STEP   86 IN STRESS PERIOD    3
                    SECONDS     MINUTES      HOURS       DAYS        YEARS
                    -----------------------------------------------------------
   TIME STEP LENGTH  86400.      1440.0      24.000      1.0000     2.73785E-03
 STRESS PERIOD TIME 7.43040E+06 1.23840E+05  2064.0      86.000     0.23546    
         TOTAL TIME 1.61568E+07 2.69280E+05  4488.0      187.00     0.51198    
1
 
 SOLVING FOR HEAD 

 OUTPUT CONTROL FOR STRESS PERIOD    3   TIME STEP   87
    SAVE HEAD FOR ALL LAYERS
    SAVE DRAWDOWN FOR ALL LAYERS
    SAVE BUDGET
    PRINT HEAD FOR ALL LAYERS
    PRINT BUDGET
 UBDSV1 SAVING "         STORAGE" ON UNIT  53 AT TIME STEP 87, STRESS PERIOD   3
 UBDSV2 SAVING "   CONSTANT HEAD" ON UNIT  53 AT TIME STEP 87, STRESS PERIOD   3
 UBDSV1 SAVING "FLOW RIGHT FACE " ON UNIT  53 AT TIME STEP 87, STRESS PERIOD   3
 UBDSV1 SAVING "FLOW FRONT FACE " ON UNIT  53 AT TIME STEP 87, STRESS PERIOD   3
 UBDSV1 SAVING "FLOW LOWER FACE " ON UNIT  53 AT TIME STEP 87, STRESS PERIOD   3
1
              HEAD IN LAYER   1 AT END OF TIME STEP  87 IN STRESS PERIOD    3
  ---------------------------------------------------------------------------

            1           2           3           4           5
 ............................................................
   1    9.998       7.499       5.000       2.502      2.9983E-03
   2    9.998       7.499       5.000       2.502      2.9983E-03
   3    9.998       7.499       5.000       2.502      2.9983E-03
   4    9.998       7.499       5.000       2.502      2.9983E-03
   5    9.998       7.499       5.000       2.502      2.9983E-03
1
              HEAD IN LAYER   2 AT END OF TIME STEP  87 IN STRESS PERIOD    3
  ---------------------------------------------------------------------------

            1           2           3           4           5
 ............................................................
   1    9.998       7.499       5.000       2.502      2.9983E-03
   2    9.998       7.499       5.000       2.502      2.9983E-03
   3    9.998       7.499       5.000       2.502      2.9983E-03
   4    9.998       7.499       5.000       2.502      2.9983E-03
   5    9.998       7.499       5.000       2.502      2.9983E-03
1
              HEAD IN LAYER   3 AT END OF TIME STEP  87 IN STRESS PERIOD    3
  ---------------------------------------------------------------------------

            1           2           3           4           5
 ............................................................
   1    9.998       7.499       5.000       2.502      2.9983E-03
   2    9.998       7.499       5.000       2.502      2.9983E-03
   3    9.998       7.499       5.000       2.502      2.9983E-03
   4    9.998       7.499       5.000       2.502      2.9983E-03
   5    9.998       7.499       5.000       2.502      2.9983E-03
1
              HEAD IN LAYER   4 AT END OF TIME STEP  87 IN STRESS PERIOD    3
  ---------------------------------------------------------------------------

            1           2           3           4           5
 ............................................................
   1    9.998       7.499       5.000       2.502      2.9983E-03
   2    9.998       7.499       5.000       2.502      2.9983E-03
   3    9.998       7.499       5.000       2.502      2.9983E-03
   4    9.998       7.499       5.000       2.502      2.9983E-03
   5    9.998       7.499       5.000       2.502      2.9983E-03
1
              HEAD IN LAYER   5 AT END OF TIME STEP  87 IN STRESS PERIOD    3
  ---------------------------------------------------------------------------

            1           2           3           4           5
 ............................................................
   1    9.998       7.499       5.000       2.502      2.9983E-03
   2    9.998       7.499       5.000       2.502      2.9983E-03
   3    9.998       7.499       5.000       2.502      2.9983E-03
   4    9.998       7.499       5.000       2.502      2.9983E-03
   5    9.998       7.499       5.000       2.502      2.9983E-03

 HEAD WILL BE SAVED ON UNIT   51 AT END OF TIME STEP   87, STRESS PERIOD    3

 DRAWDOWN WILL BE SAVED ON UNIT   52 AT END OF TIME STEP   87, STRESS PERIOD    3
1
  VOLUMETRIC BUDGET FOR ENTIRE MODEL AT END OF TIME STEP   87, STRESS PERIOD   3
  ------------------------------------------------------------------------------

     CUMULATIVE VOLUMES      L**3       RATES FOR THIS TIME STEP      L**3/T
     ------------------                 ------------------------

           IN:                                      IN:
           ---                                      ---
             STORAGE =           0.0000               STORAGE =           0.0000
       CONSTANT HEAD =           0.0000         CONSTANT HEAD =           0.0000
               WELLS =           0.0000                 WELLS =           0.0000
     HEAD DEP BOUNDS =      151784.5781       HEAD DEP BOUNDS =         749.5200

            TOTAL IN =      151784.5781              TOTAL IN =         749.5200

          OUT:                                     OUT:
          ----                                     ----
             STORAGE =       15001.0791               STORAGE =           0.0000
       CONSTANT HEAD =           0.0000         CONSTANT HEAD =           0.0000
               WELLS =           0.0000                 WELLS =           0.0000
     HEAD DEP BOUNDS =      136793.3750       HEAD DEP BOUNDS =         749.5873

           TOTAL OUT =      151794.4531             TOTAL OUT =         749.5873

            IN - OUT =          -9.8750              IN - OUT =      -6.7383E-02

 PERCENT DISCREPANCY =          -0.01     PERCENT DISCREPANCY =          -0.01






         TIME SUMMARY AT END OF TIME STEP   87 IN STRESS PERIOD    3
                    SECONDS     MINUTES      HOURS       DAYS        YEARS
                    -----------------------------------------------------------
   TIME STEP LENGTH  86400.      1440.0      24.000      1.0000     2.73785E-03
 STRESS PERIOD TIME 7.51680E+06 1.25280E+05  2088.0      87.000     0.23819    
         TOTAL TIME 1.62432E+07 2.70720E+05  4512.0      188.00     0.51472    
1
 
 SOLVING FOR HEAD 

 OUTPUT CONTROL FOR STRESS PERIOD    3   TIME STEP   88
    SAVE HEAD FOR ALL LAYERS
    SAVE DRAWDOWN FOR ALL LAYERS
    SAVE BUDGET
    PRINT HEAD FOR ALL LAYERS
    PRINT BUDGET
 UBDSV1 SAVING "         STORAGE" ON UNIT  53 AT TIME STEP 88, STRESS PERIOD   3
 UBDSV2 SAVING "   CONSTANT HEAD" ON UNIT  53 AT TIME STEP 88, STRESS PERIOD   3
 UBDSV1 SAVING "FLOW RIGHT FACE " ON UNIT  53 AT TIME STEP 88, STRESS PERIOD   3
 UBDSV1 SAVING "FLOW FRONT FACE " ON UNIT  53 AT TIME STEP 88, STRESS PERIOD   3
 UBDSV1 SAVING "FLOW LOWER FACE " ON UNIT  53 AT TIME STEP 88, STRESS PERIOD   3
1
              HEAD IN LAYER   1 AT END OF TIME STEP  88 IN STRESS PERIOD    3
  ---------------------------------------------------------------------------

            1           2           3           4           5
 ............................................................
   1    9.998       7.499       5.000       2.502      2.9983E-03
   2    9.998       7.499       5.000       2.502      2.9983E-03
   3    9.998       7.499       5.000       2.502      2.9983E-03
   4    9.998       7.499       5.000       2.502      2.9983E-03
   5    9.998       7.499       5.000       2.502      2.9983E-03
1
              HEAD IN LAYER   2 AT END OF TIME STEP  88 IN STRESS PERIOD    3
  ---------------------------------------------------------------------------

            1           2           3           4           5
 ............................................................
   1    9.998       7.499       5.000       2.502      2.9983E-03
   2    9.998       7.499       5.000       2.502      2.9983E-03
   3    9.998       7.499       5.000       2.502      2.9983E-03
   4    9.998       7.499       5.000       2.502      2.9983E-03
   5    9.998       7.499       5.000       2.502      2.9983E-03
1
              HEAD IN LAYER   3 AT END OF TIME STEP  88 IN STRESS PERIOD    3
  ---------------------------------------------------------------------------

            1           2           3           4           5
 ............................................................
   1    9.998       7.499       5.000       2.502      2.9983E-03
   2    9.998       7.499       5.000       2.502      2.9983E-03
   3    9.998       7.499       5.000       2.502      2.9983E-03
   4    9.998       7.499       5.000       2.502      2.9983E-03
   5    9.998       7.499       5.000       2.502      2.9983E-03
1
              HEAD IN LAYER   4 AT END OF TIME STEP  88 IN STRESS PERIOD    3
  ---------------------------------------------------------------------------

            1           2           3           4           5
 ............................................................
   1    9.998       7.499       5.000       2.502      2.9983E-03
   2    9.998       7.499       5.000       2.502      2.9983E-03
   3    9.998       7.499       5.000       2.502      2.9983E-03
   4    9.998       7.499       5.000       2.502      2.9983E-03
   5    9.998       7.499       5.000       2.502      2.9983E-03
1
              HEAD IN LAYER   5 AT END OF TIME STEP  88 IN STRESS PERIOD    3
  ---------------------------------------------------------------------------

            1           2           3           4           5
 ............................................................
   1    9.998       7.499       5.000       2.502      2.9983E-03
   2    9.998       7.499       5.000       2.502      2.9983E-03
   3    9.998       7.499       5.000       2.502      2.9983E-03
   4    9.998       7.499       5.000       2.502      2.9983E-03
   5    9.998       7.499       5.000       2.502      2.9983E-03

 HEAD WILL BE SAVED ON UNIT   51 AT END OF TIME STEP   88, STRESS PERIOD    3

 DRAWDOWN WILL BE SAVED ON UNIT   52 AT END OF TIME STEP   88, STRESS PERIOD    3
1
  VOLUMETRIC BUDGET FOR ENTIRE MODEL AT END OF TIME STEP   88, STRESS PERIOD   3
  ------------------------------------------------------------------------------

     CUMULATIVE VOLUMES      L**3       RATES FOR THIS TIME STEP      L**3/T
     ------------------                 ------------------------

           IN:                                      IN:
           ---                                      ---
             STORAGE =           0.0000               STORAGE =           0.0000
       CONSTANT HEAD =           0.0000         CONSTANT HEAD =           0.0000
               WELLS =           0.0000                 WELLS =           0.0000
     HEAD DEP BOUNDS =      152534.0938       HEAD DEP BOUNDS =         749.5200

            TOTAL IN =      152534.0938              TOTAL IN =         749.5200

          OUT:                                     OUT:
          ----                                     ----
             STORAGE =       15001.0791               STORAGE =           0.0000
       CONSTANT HEAD =           0.0000         CONSTANT HEAD =           0.0000
               WELLS =           0.0000                 WELLS =           0.0000
     HEAD DEP BOUNDS =      137542.9688       HEAD DEP BOUNDS =         749.5873

           TOTAL OUT =      152544.0469             TOTAL OUT =         749.5873

            IN - OUT =          -9.9531              IN - OUT =      -6.7383E-02

 PERCENT DISCREPANCY =          -0.01     PERCENT DISCREPANCY =          -0.01






         TIME SUMMARY AT END OF TIME STEP   88 IN STRESS PERIOD    3
                    SECONDS     MINUTES      HOURS       DAYS        YEARS
                    -----------------------------------------------------------
   TIME STEP LENGTH  86400.      1440.0      24.000      1.0000     2.73785E-03
 STRESS PERIOD TIME 7.60320E+06 1.26720E+05  2112.0      88.000     0.24093    
         TOTAL TIME 1.63296E+07 2.72160E+05  4536.0      189.00     0.51745    
1
 
 SOLVING FOR HEAD 

 OUTPUT CONTROL FOR STRESS PERIOD    3   TIME STEP   89
    SAVE HEAD FOR ALL LAYERS
    SAVE DRAWDOWN FOR ALL LAYERS
    SAVE BUDGET
    PRINT HEAD FOR ALL LAYERS
    PRINT BUDGET
 UBDSV1 SAVING "         STORAGE" ON UNIT  53 AT TIME STEP 89, STRESS PERIOD   3
 UBDSV2 SAVING "   CONSTANT HEAD" ON UNIT  53 AT TIME STEP 89, STRESS PERIOD   3
 UBDSV1 SAVING "FLOW RIGHT FACE " ON UNIT  53 AT TIME STEP 89, STRESS PERIOD   3
 UBDSV1 SAVING "FLOW FRONT FACE " ON UNIT  53 AT TIME STEP 89, STRESS PERIOD   3
 UBDSV1 SAVING "FLOW LOWER FACE " ON UNIT  53 AT TIME STEP 89, STRESS PERIOD   3
1
              HEAD IN LAYER   1 AT END OF TIME STEP  89 IN STRESS PERIOD    3
  ---------------------------------------------------------------------------

            1           2           3           4           5
 ............................................................
   1    9.998       7.499       5.000       2.502      2.9983E-03
   2    9.998       7.499       5.000       2.502      2.9983E-03
   3    9.998       7.499       5.000       2.502      2.9983E-03
   4    9.998       7.499       5.000       2.502      2.9983E-03
   5    9.998       7.499       5.000       2.502      2.9983E-03
1
              HEAD IN LAYER   2 AT END OF TIME STEP  89 IN STRESS PERIOD    3
  ---------------------------------------------------------------------------

            1           2           3           4           5
 ............................................................
   1    9.998       7.499       5.000       2.502      2.9983E-03
   2    9.998       7.499       5.000       2.502      2.9983E-03
   3    9.998       7.499       5.000       2.502      2.9983E-03
   4    9.998       7.499       5.000       2.502      2.9983E-03
   5    9.998       7.499       5.000       2.502      2.9983E-03
1
              HEAD IN LAYER   3 AT END OF TIME STEP  89 IN STRESS PERIOD    3
  ---------------------------------------------------------------------------

            1           2           3           4           5
 ............................................................
   1    9.998       7.499       5.000       2.502      2.9983E-03
   2    9.998       7.499       5.000       2.502      2.9983E-03
   3    9.998       7.499       5.000       2.502      2.9983E-03
   4    9.998       7.499       5.000       2.502      2.9983E-03
   5    9.998       7.499       5.000       2.502      2.9983E-03
1
              HEAD IN LAYER   4 AT END OF TIME STEP  89 IN STRESS PERIOD    3
  ---------------------------------------------------------------------------

            1           2           3           4           5
 ............................................................
   1    9.998       7.499       5.000       2.502      2.9983E-03
   2    9.998       7.499       5.000       2.502      2.9983E-03
   3    9.998       7.499       5.000       2.502      2.9983E-03
   4    9.998       7.499       5.000       2.502      2.9983E-03
   5    9.998       7.499       5.000       2.502      2.9983E-03
1
              HEAD IN LAYER   5 AT END OF TIME STEP  89 IN STRESS PERIOD    3
  ---------------------------------------------------------------------------

            1           2           3           4           5
 ............................................................
   1    9.998       7.499       5.000       2.502      2.9983E-03
   2    9.998       7.499       5.000       2.502      2.9983E-03
   3    9.998       7.499       5.000       2.502      2.9983E-03
   4    9.998       7.499       5.000       2.502      2.9983E-03
   5    9.998       7.499       5.000       2.502      2.9983E-03

 HEAD WILL BE SAVED ON UNIT   51 AT END OF TIME STEP   89, STRESS PERIOD    3

 DRAWDOWN WILL BE SAVED ON UNIT   52 AT END OF TIME STEP   89, STRESS PERIOD    3
1
  VOLUMETRIC BUDGET FOR ENTIRE MODEL AT END OF TIME STEP   89, STRESS PERIOD   3
  ------------------------------------------------------------------------------

     CUMULATIVE VOLUMES      L**3       RATES FOR THIS TIME STEP      L**3/T
     ------------------                 ------------------------

           IN:                                      IN:
           ---                                      ---
             STORAGE =           0.0000               STORAGE =           0.0000
       CONSTANT HEAD =           0.0000         CONSTANT HEAD =           0.0000
               WELLS =           0.0000                 WELLS =           0.0000
     HEAD DEP BOUNDS =      153283.6094       HEAD DEP BOUNDS =         749.5200

            TOTAL IN =      153283.6094              TOTAL IN =         749.5200

          OUT:                                     OUT:
          ----                                     ----
             STORAGE =       15001.0791               STORAGE =           0.0000
       CONSTANT HEAD =           0.0000         CONSTANT HEAD =           0.0000
               WELLS =           0.0000                 WELLS =           0.0000
     HEAD DEP BOUNDS =      138292.5625       HEAD DEP BOUNDS =         749.5873

           TOTAL OUT =      153293.6406             TOTAL OUT =         749.5873

            IN - OUT =         -10.0312              IN - OUT =      -6.7383E-02

 PERCENT DISCREPANCY =          -0.01     PERCENT DISCREPANCY =          -0.01






         TIME SUMMARY AT END OF TIME STEP   89 IN STRESS PERIOD    3
                    SECONDS     MINUTES      HOURS       DAYS        YEARS
                    -----------------------------------------------------------
   TIME STEP LENGTH  86400.      1440.0      24.000      1.0000     2.73785E-03
 STRESS PERIOD TIME 7.68960E+06 1.28160E+05  2136.0      89.000     0.24367    
         TOTAL TIME 1.64160E+07 2.73600E+05  4560.0      190.00     0.52019    
1
 
 SOLVING FOR HEAD 

 OUTPUT CONTROL FOR STRESS PERIOD    3   TIME STEP   90
    SAVE HEAD FOR ALL LAYERS
    SAVE DRAWDOWN FOR ALL LAYERS
    SAVE BUDGET
    PRINT HEAD FOR ALL LAYERS
    PRINT BUDGET
 UBDSV1 SAVING "         STORAGE" ON UNIT  53 AT TIME STEP 90, STRESS PERIOD   3
 UBDSV2 SAVING "   CONSTANT HEAD" ON UNIT  53 AT TIME STEP 90, STRESS PERIOD   3
 UBDSV1 SAVING "FLOW RIGHT FACE " ON UNIT  53 AT TIME STEP 90, STRESS PERIOD   3
 UBDSV1 SAVING "FLOW FRONT FACE " ON UNIT  53 AT TIME STEP 90, STRESS PERIOD   3
 UBDSV1 SAVING "FLOW LOWER FACE " ON UNIT  53 AT TIME STEP 90, STRESS PERIOD   3
1
              HEAD IN LAYER   1 AT END OF TIME STEP  90 IN STRESS PERIOD    3
  ---------------------------------------------------------------------------

            1           2           3           4           5
 ............................................................
   1    9.998       7.499       5.000       2.502      2.9983E-03
   2    9.998       7.499       5.000       2.502      2.9983E-03
   3    9.998       7.499       5.000       2.502      2.9983E-03
   4    9.998       7.499       5.000       2.502      2.9983E-03
   5    9.998       7.499       5.000       2.502      2.9983E-03
1
              HEAD IN LAYER   2 AT END OF TIME STEP  90 IN STRESS PERIOD    3
  ---------------------------------------------------------------------------

            1           2           3           4           5
 ............................................................
   1    9.998       7.499       5.000       2.502      2.9983E-03
   2    9.998       7.499       5.000       2.502      2.9983E-03
   3    9.998       7.499       5.000       2.502      2.9983E-03
   4    9.998       7.499       5.000       2.502      2.9983E-03
   5    9.998       7.499       5.000       2.502      2.9983E-03
1
              HEAD IN LAYER   3 AT END OF TIME STEP  90 IN STRESS PERIOD    3
  ---------------------------------------------------------------------------

            1           2           3           4           5
 ............................................................
   1    9.998       7.499       5.000       2.502      2.9983E-03
   2    9.998       7.499       5.000       2.502      2.9983E-03
   3    9.998       7.499       5.000       2.502      2.9983E-03
   4    9.998       7.499       5.000       2.502      2.9983E-03
   5    9.998       7.499       5.000       2.502      2.9983E-03
1
              HEAD IN LAYER   4 AT END OF TIME STEP  90 IN STRESS PERIOD    3
  ---------------------------------------------------------------------------

            1           2           3           4           5
 ............................................................
   1    9.998       7.499       5.000       2.502      2.9983E-03
   2    9.998       7.499       5.000       2.502      2.9983E-03
   3    9.998       7.499       5.000       2.502      2.9983E-03
   4    9.998       7.499       5.000       2.502      2.9983E-03
   5    9.998       7.499       5.000       2.502      2.9983E-03
1
              HEAD IN LAYER   5 AT END OF TIME STEP  90 IN STRESS PERIOD    3
  ---------------------------------------------------------------------------

            1           2           3           4           5
 ............................................................
   1    9.998       7.499       5.000       2.502      2.9983E-03
   2    9.998       7.499       5.000       2.502      2.9983E-03
   3    9.998       7.499       5.000       2.502      2.9983E-03
   4    9.998       7.499       5.000       2.502      2.9983E-03
   5    9.998       7.499       5.000       2.502      2.9983E-03

 HEAD WILL BE SAVED ON UNIT   51 AT END OF TIME STEP   90, STRESS PERIOD    3

 DRAWDOWN WILL BE SAVED ON UNIT   52 AT END OF TIME STEP   90, STRESS PERIOD    3
1
  VOLUMETRIC BUDGET FOR ENTIRE MODEL AT END OF TIME STEP   90, STRESS PERIOD   3
  ------------------------------------------------------------------------------

     CUMULATIVE VOLUMES      L**3       RATES FOR THIS TIME STEP      L**3/T
     ------------------                 ------------------------

           IN:                                      IN:
           ---                                      ---
             STORAGE =           0.0000               STORAGE =           0.0000
       CONSTANT HEAD =           0.0000         CONSTANT HEAD =           0.0000
               WELLS =           0.0000                 WELLS =           0.0000
     HEAD DEP BOUNDS =      154033.1250       HEAD DEP BOUNDS =         749.5200

            TOTAL IN =      154033.1250              TOTAL IN =         749.5200

          OUT:                                     OUT:
          ----                                     ----
             STORAGE =       15001.0791               STORAGE =           0.0000
       CONSTANT HEAD =           0.0000         CONSTANT HEAD =           0.0000
               WELLS =           0.0000                 WELLS =           0.0000
     HEAD DEP BOUNDS =      139042.1562       HEAD DEP BOUNDS =         749.5873

           TOTAL OUT =      154043.2344             TOTAL OUT =         749.5873

            IN - OUT =         -10.1094              IN - OUT =      -6.7383E-02

 PERCENT DISCREPANCY =          -0.01     PERCENT DISCREPANCY =          -0.01






         TIME SUMMARY AT END OF TIME STEP   90 IN STRESS PERIOD    3
                    SECONDS     MINUTES      HOURS       DAYS        YEARS
                    -----------------------------------------------------------
   TIME STEP LENGTH  86400.      1440.0      24.000      1.0000     2.73785E-03
 STRESS PERIOD TIME 7.77600E+06 1.29600E+05  2160.0      90.000     0.24641    
         TOTAL TIME 1.65024E+07 2.75040E+05  4584.0      191.00     0.52293    
1
 
 SOLVING FOR HEAD 

 OUTPUT CONTROL FOR STRESS PERIOD    3   TIME STEP   91
    SAVE HEAD FOR ALL LAYERS
    SAVE DRAWDOWN FOR ALL LAYERS
    SAVE BUDGET
    PRINT HEAD FOR ALL LAYERS
    PRINT BUDGET
 UBDSV1 SAVING "         STORAGE" ON UNIT  53 AT TIME STEP 91, STRESS PERIOD   3
 UBDSV2 SAVING "   CONSTANT HEAD" ON UNIT  53 AT TIME STEP 91, STRESS PERIOD   3
 UBDSV1 SAVING "FLOW RIGHT FACE " ON UNIT  53 AT TIME STEP 91, STRESS PERIOD   3
 UBDSV1 SAVING "FLOW FRONT FACE " ON UNIT  53 AT TIME STEP 91, STRESS PERIOD   3
 UBDSV1 SAVING "FLOW LOWER FACE " ON UNIT  53 AT TIME STEP 91, STRESS PERIOD   3
1
              HEAD IN LAYER   1 AT END OF TIME STEP  91 IN STRESS PERIOD    3
  ---------------------------------------------------------------------------

            1           2           3           4           5
 ............................................................
   1    9.998       7.499       5.000       2.502      2.9983E-03
   2    9.998       7.499       5.000       2.502      2.9983E-03
   3    9.998       7.499       5.000       2.502      2.9983E-03
   4    9.998       7.499       5.000       2.502      2.9983E-03
   5    9.998       7.499       5.000       2.502      2.9983E-03
1
              HEAD IN LAYER   2 AT END OF TIME STEP  91 IN STRESS PERIOD    3
  ---------------------------------------------------------------------------

            1           2           3           4           5
 ............................................................
   1    9.998       7.499       5.000       2.502      2.9983E-03
   2    9.998       7.499       5.000       2.502      2.9983E-03
   3    9.998       7.499       5.000       2.502      2.9983E-03
   4    9.998       7.499       5.000       2.502      2.9983E-03
   5    9.998       7.499       5.000       2.502      2.9983E-03
1
              HEAD IN LAYER   3 AT END OF TIME STEP  91 IN STRESS PERIOD    3
  ---------------------------------------------------------------------------

            1           2           3           4           5
 ............................................................
   1    9.998       7.499       5.000       2.502      2.9983E-03
   2    9.998       7.499       5.000       2.502      2.9983E-03
   3    9.998       7.499       5.000       2.502      2.9983E-03
   4    9.998       7.499       5.000       2.502      2.9983E-03
   5    9.998       7.499       5.000       2.502      2.9983E-03
1
              HEAD IN LAYER   4 AT END OF TIME STEP  91 IN STRESS PERIOD    3
  ---------------------------------------------------------------------------

            1           2           3           4           5
 ............................................................
   1    9.998       7.499       5.000       2.502      2.9983E-03
   2    9.998       7.499       5.000       2.502      2.9983E-03
   3    9.998       7.499       5.000       2.502      2.9983E-03
   4    9.998       7.499       5.000       2.502      2.9983E-03
   5    9.998       7.499       5.000       2.502      2.9983E-03
1
              HEAD IN LAYER   5 AT END OF TIME STEP  91 IN STRESS PERIOD    3
  ---------------------------------------------------------------------------

            1           2           3           4           5
 ............................................................
   1    9.998       7.499       5.000       2.502      2.9983E-03
   2    9.998       7.499       5.000       2.502      2.9983E-03
   3    9.998       7.499       5.000       2.502      2.9983E-03
   4    9.998       7.499       5.000       2.502      2.9983E-03
   5    9.998       7.499       5.000       2.502      2.9983E-03

 HEAD WILL BE SAVED ON UNIT   51 AT END OF TIME STEP   91, STRESS PERIOD    3

 DRAWDOWN WILL BE SAVED ON UNIT   52 AT END OF TIME STEP   91, STRESS PERIOD    3
1
  VOLUMETRIC BUDGET FOR ENTIRE MODEL AT END OF TIME STEP   91, STRESS PERIOD   3
  ------------------------------------------------------------------------------

     CUMULATIVE VOLUMES      L**3       RATES FOR THIS TIME STEP      L**3/T
     ------------------                 ------------------------

           IN:                                      IN:
           ---                                      ---
             STORAGE =           0.0000               STORAGE =           0.0000
       CONSTANT HEAD =           0.0000         CONSTANT HEAD =           0.0000
               WELLS =           0.0000                 WELLS =           0.0000
     HEAD DEP BOUNDS =      154782.6406       HEAD DEP BOUNDS =         749.5200

            TOTAL IN =      154782.6406              TOTAL IN =         749.5200

          OUT:                                     OUT:
          ----                                     ----
             STORAGE =       15001.0791               STORAGE =           0.0000
       CONSTANT HEAD =           0.0000         CONSTANT HEAD =           0.0000
               WELLS =           0.0000                 WELLS =           0.0000
     HEAD DEP BOUNDS =      139791.7500       HEAD DEP BOUNDS =         749.5873

           TOTAL OUT =      154792.8281             TOTAL OUT =         749.5873

            IN - OUT =         -10.1875              IN - OUT =      -6.7383E-02

 PERCENT DISCREPANCY =          -0.01     PERCENT DISCREPANCY =          -0.01






         TIME SUMMARY AT END OF TIME STEP   91 IN STRESS PERIOD    3
                    SECONDS     MINUTES      HOURS       DAYS        YEARS
                    -----------------------------------------------------------
   TIME STEP LENGTH  86400.      1440.0      24.000      1.0000     2.73785E-03
 STRESS PERIOD TIME 7.86240E+06 1.31040E+05  2184.0      91.000     0.24914    
         TOTAL TIME 1.65888E+07 2.76480E+05  4608.0      192.00     0.52567    
1
 
 SOLVING FOR HEAD 

 OUTPUT CONTROL FOR STRESS PERIOD    3   TIME STEP   92
    SAVE HEAD FOR ALL LAYERS
    SAVE DRAWDOWN FOR ALL LAYERS
    SAVE BUDGET
    PRINT HEAD FOR ALL LAYERS
    PRINT BUDGET
 UBDSV1 SAVING "         STORAGE" ON UNIT  53 AT TIME STEP 92, STRESS PERIOD   3
 UBDSV2 SAVING "   CONSTANT HEAD" ON UNIT  53 AT TIME STEP 92, STRESS PERIOD   3
 UBDSV1 SAVING "FLOW RIGHT FACE " ON UNIT  53 AT TIME STEP 92, STRESS PERIOD   3
 UBDSV1 SAVING "FLOW FRONT FACE " ON UNIT  53 AT TIME STEP 92, STRESS PERIOD   3
 UBDSV1 SAVING "FLOW LOWER FACE " ON UNIT  53 AT TIME STEP 92, STRESS PERIOD   3
1
              HEAD IN LAYER   1 AT END OF TIME STEP  92 IN STRESS PERIOD    3
  ---------------------------------------------------------------------------

            1           2           3           4           5
 ............................................................
   1    9.998       7.499       5.000       2.502      2.9983E-03
   2    9.998       7.499       5.000       2.502      2.9983E-03
   3    9.998       7.499       5.000       2.502      2.9983E-03
   4    9.998       7.499       5.000       2.502      2.9983E-03
   5    9.998       7.499       5.000       2.502      2.9983E-03
1
              HEAD IN LAYER   2 AT END OF TIME STEP  92 IN STRESS PERIOD    3
  ---------------------------------------------------------------------------

            1           2           3           4           5
 ............................................................
   1    9.998       7.499       5.000       2.502      2.9983E-03
   2    9.998       7.499       5.000       2.502      2.9983E-03
   3    9.998       7.499       5.000       2.502      2.9983E-03
   4    9.998       7.499       5.000       2.502      2.9983E-03
   5    9.998       7.499       5.000       2.502      2.9983E-03
1
              HEAD IN LAYER   3 AT END OF TIME STEP  92 IN STRESS PERIOD    3
  ---------------------------------------------------------------------------

            1           2           3           4           5
 ............................................................
   1    9.998       7.499       5.000       2.502      2.9983E-03
   2    9.998       7.499       5.000       2.502      2.9983E-03
   3    9.998       7.499       5.000       2.502      2.9983E-03
   4    9.998       7.499       5.000       2.502      2.9983E-03
   5    9.998       7.499       5.000       2.502      2.9983E-03
1
              HEAD IN LAYER   4 AT END OF TIME STEP  92 IN STRESS PERIOD    3
  ---------------------------------------------------------------------------

            1           2           3           4           5
 ............................................................
   1    9.998       7.499       5.000       2.502      2.9983E-03
   2    9.998       7.499       5.000       2.502      2.9983E-03
   3    9.998       7.499       5.000       2.502      2.9983E-03
   4    9.998       7.499       5.000       2.502      2.9983E-03
   5    9.998       7.499       5.000       2.502      2.9983E-03
1
              HEAD IN LAYER   5 AT END OF TIME STEP  92 IN STRESS PERIOD    3
  ---------------------------------------------------------------------------

            1           2           3           4           5
 ............................................................
   1    9.998       7.499       5.000       2.502      2.9983E-03
   2    9.998       7.499       5.000       2.502      2.9983E-03
   3    9.998       7.499       5.000       2.502      2.9983E-03
   4    9.998       7.499       5.000       2.502      2.9983E-03
   5    9.998       7.499       5.000       2.502      2.9983E-03

 HEAD WILL BE SAVED ON UNIT   51 AT END OF TIME STEP   92, STRESS PERIOD    3

 DRAWDOWN WILL BE SAVED ON UNIT   52 AT END OF TIME STEP   92, STRESS PERIOD    3
1
  VOLUMETRIC BUDGET FOR ENTIRE MODEL AT END OF TIME STEP   92, STRESS PERIOD   3
  ------------------------------------------------------------------------------

     CUMULATIVE VOLUMES      L**3       RATES FOR THIS TIME STEP      L**3/T
     ------------------                 ------------------------

           IN:                                      IN:
           ---                                      ---
             STORAGE =           0.0000               STORAGE =           0.0000
       CONSTANT HEAD =           0.0000         CONSTANT HEAD =           0.0000
               WELLS =           0.0000                 WELLS =           0.0000
     HEAD DEP BOUNDS =      155532.1562       HEAD DEP BOUNDS =         749.5200

            TOTAL IN =      155532.1562              TOTAL IN =         749.5200

          OUT:                                     OUT:
          ----                                     ----
             STORAGE =       15001.0791               STORAGE =           0.0000
       CONSTANT HEAD =           0.0000         CONSTANT HEAD =           0.0000
               WELLS =           0.0000                 WELLS =           0.0000
     HEAD DEP BOUNDS =      140541.3438       HEAD DEP BOUNDS =         749.5873

           TOTAL OUT =      155542.4219             TOTAL OUT =         749.5873

            IN - OUT =         -10.2656              IN - OUT =      -6.7383E-02

 PERCENT DISCREPANCY =          -0.01     PERCENT DISCREPANCY =          -0.01






         TIME SUMMARY AT END OF TIME STEP   92 IN STRESS PERIOD    3
                    SECONDS     MINUTES      HOURS       DAYS        YEARS
                    -----------------------------------------------------------
   TIME STEP LENGTH  86400.      1440.0      24.000      1.0000     2.73785E-03
 STRESS PERIOD TIME 7.94880E+06 1.32480E+05  2208.0      92.000     0.25188    
         TOTAL TIME 1.66752E+07 2.77920E+05  4632.0      193.00     0.52841    
1
 
 SOLVING FOR HEAD 

 OUTPUT CONTROL FOR STRESS PERIOD    3   TIME STEP   93
    SAVE HEAD FOR ALL LAYERS
    SAVE DRAWDOWN FOR ALL LAYERS
    SAVE BUDGET
    PRINT HEAD FOR ALL LAYERS
    PRINT BUDGET
 UBDSV1 SAVING "         STORAGE" ON UNIT  53 AT TIME STEP 93, STRESS PERIOD   3
 UBDSV2 SAVING "   CONSTANT HEAD" ON UNIT  53 AT TIME STEP 93, STRESS PERIOD   3
 UBDSV1 SAVING "FLOW RIGHT FACE " ON UNIT  53 AT TIME STEP 93, STRESS PERIOD   3
 UBDSV1 SAVING "FLOW FRONT FACE " ON UNIT  53 AT TIME STEP 93, STRESS PERIOD   3
 UBDSV1 SAVING "FLOW LOWER FACE " ON UNIT  53 AT TIME STEP 93, STRESS PERIOD   3
1
              HEAD IN LAYER   1 AT END OF TIME STEP  93 IN STRESS PERIOD    3
  ---------------------------------------------------------------------------

            1           2           3           4           5
 ............................................................
   1    9.998       7.499       5.000       2.502      2.9983E-03
   2    9.998       7.499       5.000       2.502      2.9983E-03
   3    9.998       7.499       5.000       2.502      2.9983E-03
   4    9.998       7.499       5.000       2.502      2.9983E-03
   5    9.998       7.499       5.000       2.502      2.9983E-03
1
              HEAD IN LAYER   2 AT END OF TIME STEP  93 IN STRESS PERIOD    3
  ---------------------------------------------------------------------------

            1           2           3           4           5
 ............................................................
   1    9.998       7.499       5.000       2.502      2.9983E-03
   2    9.998       7.499       5.000       2.502      2.9983E-03
   3    9.998       7.499       5.000       2.502      2.9983E-03
   4    9.998       7.499       5.000       2.502      2.9983E-03
   5    9.998       7.499       5.000       2.502      2.9983E-03
1
              HEAD IN LAYER   3 AT END OF TIME STEP  93 IN STRESS PERIOD    3
  ---------------------------------------------------------------------------

            1           2           3           4           5
 ............................................................
   1    9.998       7.499       5.000       2.502      2.9983E-03
   2    9.998       7.499       5.000       2.502      2.9983E-03
   3    9.998       7.499       5.000       2.502      2.9983E-03
   4    9.998       7.499       5.000       2.502      2.9983E-03
   5    9.998       7.499       5.000       2.502      2.9983E-03
1
              HEAD IN LAYER   4 AT END OF TIME STEP  93 IN STRESS PERIOD    3
  ---------------------------------------------------------------------------

            1           2           3           4           5
 ............................................................
   1    9.998       7.499       5.000       2.502      2.9983E-03
   2    9.998       7.499       5.000       2.502      2.9983E-03
   3    9.998       7.499       5.000       2.502      2.9983E-03
   4    9.998       7.499       5.000       2.502      2.9983E-03
   5    9.998       7.499       5.000       2.502      2.9983E-03
1
              HEAD IN LAYER   5 AT END OF TIME STEP  93 IN STRESS PERIOD    3
  ---------------------------------------------------------------------------

            1           2           3           4           5
 ............................................................
   1    9.998       7.499       5.000       2.502      2.9983E-03
   2    9.998       7.499       5.000       2.502      2.9983E-03
   3    9.998       7.499       5.000       2.502      2.9983E-03
   4    9.998       7.499       5.000       2.502      2.9983E-03
   5    9.998       7.499       5.000       2.502      2.9983E-03

 HEAD WILL BE SAVED ON UNIT   51 AT END OF TIME STEP   93, STRESS PERIOD    3

 DRAWDOWN WILL BE SAVED ON UNIT   52 AT END OF TIME STEP   93, STRESS PERIOD    3
1
  VOLUMETRIC BUDGET FOR ENTIRE MODEL AT END OF TIME STEP   93, STRESS PERIOD   3
  ------------------------------------------------------------------------------

     CUMULATIVE VOLUMES      L**3       RATES FOR THIS TIME STEP      L**3/T
     ------------------                 ------------------------

           IN:                                      IN:
           ---                                      ---
             STORAGE =           0.0000               STORAGE =           0.0000
       CONSTANT HEAD =           0.0000         CONSTANT HEAD =           0.0000
               WELLS =           0.0000                 WELLS =           0.0000
     HEAD DEP BOUNDS =      156281.6719       HEAD DEP BOUNDS =         749.5200

            TOTAL IN =      156281.6719              TOTAL IN =         749.5200

          OUT:                                     OUT:
          ----                                     ----
             STORAGE =       15001.0791               STORAGE =           0.0000
       CONSTANT HEAD =           0.0000         CONSTANT HEAD =           0.0000
               WELLS =           0.0000                 WELLS =           0.0000
     HEAD DEP BOUNDS =      141290.9375       HEAD DEP BOUNDS =         749.5873

           TOTAL OUT =      156292.0156             TOTAL OUT =         749.5873

            IN - OUT =         -10.3438              IN - OUT =      -6.7383E-02

 PERCENT DISCREPANCY =          -0.01     PERCENT DISCREPANCY =          -0.01






         TIME SUMMARY AT END OF TIME STEP   93 IN STRESS PERIOD    3
                    SECONDS     MINUTES      HOURS       DAYS        YEARS
                    -----------------------------------------------------------
   TIME STEP LENGTH  86400.      1440.0      24.000      1.0000     2.73785E-03
 STRESS PERIOD TIME 8.03520E+06 1.33920E+05  2232.0      93.000     0.25462    
         TOTAL TIME 1.67616E+07 2.79360E+05  4656.0      194.00     0.53114    
1
 
 SOLVING FOR HEAD 

 OUTPUT CONTROL FOR STRESS PERIOD    3   TIME STEP   94
    SAVE HEAD FOR ALL LAYERS
    SAVE DRAWDOWN FOR ALL LAYERS
    SAVE BUDGET
    PRINT HEAD FOR ALL LAYERS
    PRINT BUDGET
 UBDSV1 SAVING "         STORAGE" ON UNIT  53 AT TIME STEP 94, STRESS PERIOD   3
 UBDSV2 SAVING "   CONSTANT HEAD" ON UNIT  53 AT TIME STEP 94, STRESS PERIOD   3
 UBDSV1 SAVING "FLOW RIGHT FACE " ON UNIT  53 AT TIME STEP 94, STRESS PERIOD   3
 UBDSV1 SAVING "FLOW FRONT FACE " ON UNIT  53 AT TIME STEP 94, STRESS PERIOD   3
 UBDSV1 SAVING "FLOW LOWER FACE " ON UNIT  53 AT TIME STEP 94, STRESS PERIOD   3
1
              HEAD IN LAYER   1 AT END OF TIME STEP  94 IN STRESS PERIOD    3
  ---------------------------------------------------------------------------

            1           2           3           4           5
 ............................................................
   1    9.998       7.499       5.000       2.502      2.9983E-03
   2    9.998       7.499       5.000       2.502      2.9983E-03
   3    9.998       7.499       5.000       2.502      2.9983E-03
   4    9.998       7.499       5.000       2.502      2.9983E-03
   5    9.998       7.499       5.000       2.502      2.9983E-03
1
              HEAD IN LAYER   2 AT END OF TIME STEP  94 IN STRESS PERIOD    3
  ---------------------------------------------------------------------------

            1           2           3           4           5
 ............................................................
   1    9.998       7.499       5.000       2.502      2.9983E-03
   2    9.998       7.499       5.000       2.502      2.9983E-03
   3    9.998       7.499       5.000       2.502      2.9983E-03
   4    9.998       7.499       5.000       2.502      2.9983E-03
   5    9.998       7.499       5.000       2.502      2.9983E-03
1
              HEAD IN LAYER   3 AT END OF TIME STEP  94 IN STRESS PERIOD    3
  ---------------------------------------------------------------------------

            1           2           3           4           5
 ............................................................
   1    9.998       7.499       5.000       2.502      2.9983E-03
   2    9.998       7.499       5.000       2.502      2.9983E-03
   3    9.998       7.499       5.000       2.502      2.9983E-03
   4    9.998       7.499       5.000       2.502      2.9983E-03
   5    9.998       7.499       5.000       2.502      2.9983E-03
1
              HEAD IN LAYER   4 AT END OF TIME STEP  94 IN STRESS PERIOD    3
  ---------------------------------------------------------------------------

            1           2           3           4           5
 ............................................................
   1    9.998       7.499       5.000       2.502      2.9983E-03
   2    9.998       7.499       5.000       2.502      2.9983E-03
   3    9.998       7.499       5.000       2.502      2.9983E-03
   4    9.998       7.499       5.000       2.502      2.9983E-03
   5    9.998       7.499       5.000       2.502      2.9983E-03
1
              HEAD IN LAYER   5 AT END OF TIME STEP  94 IN STRESS PERIOD    3
  ---------------------------------------------------------------------------

            1           2           3           4           5
 ............................................................
   1    9.998       7.499       5.000       2.502      2.9983E-03
   2    9.998       7.499       5.000       2.502      2.9983E-03
   3    9.998       7.499       5.000       2.502      2.9983E-03
   4    9.998       7.499       5.000       2.502      2.9983E-03
   5    9.998       7.499       5.000       2.502      2.9983E-03

 HEAD WILL BE SAVED ON UNIT   51 AT END OF TIME STEP   94, STRESS PERIOD    3

 DRAWDOWN WILL BE SAVED ON UNIT   52 AT END OF TIME STEP   94, STRESS PERIOD    3
1
  VOLUMETRIC BUDGET FOR ENTIRE MODEL AT END OF TIME STEP   94, STRESS PERIOD   3
  ------------------------------------------------------------------------------

     CUMULATIVE VOLUMES      L**3       RATES FOR THIS TIME STEP      L**3/T
     ------------------                 ------------------------

           IN:                                      IN:
           ---                                      ---
             STORAGE =           0.0000               STORAGE =           0.0000
       CONSTANT HEAD =           0.0000         CONSTANT HEAD =           0.0000
               WELLS =           0.0000                 WELLS =           0.0000
     HEAD DEP BOUNDS =      157031.1875       HEAD DEP BOUNDS =         749.5200

            TOTAL IN =      157031.1875              TOTAL IN =         749.5200

          OUT:                                     OUT:
          ----                                     ----
             STORAGE =       15001.0791               STORAGE =           0.0000
       CONSTANT HEAD =           0.0000         CONSTANT HEAD =           0.0000
               WELLS =           0.0000                 WELLS =           0.0000
     HEAD DEP BOUNDS =      142040.5312       HEAD DEP BOUNDS =         749.5873

           TOTAL OUT =      157041.6094             TOTAL OUT =         749.5873

            IN - OUT =         -10.4219              IN - OUT =      -6.7383E-02

 PERCENT DISCREPANCY =          -0.01     PERCENT DISCREPANCY =          -0.01






         TIME SUMMARY AT END OF TIME STEP   94 IN STRESS PERIOD    3
                    SECONDS     MINUTES      HOURS       DAYS        YEARS
                    -----------------------------------------------------------
   TIME STEP LENGTH  86400.      1440.0      24.000      1.0000     2.73785E-03
 STRESS PERIOD TIME 8.12160E+06 1.35360E+05  2256.0      94.000     0.25736    
         TOTAL TIME 1.68480E+07 2.80800E+05  4680.0      195.00     0.53388    
1
 
 SOLVING FOR HEAD 

 OUTPUT CONTROL FOR STRESS PERIOD    3   TIME STEP   95
    SAVE HEAD FOR ALL LAYERS
    SAVE DRAWDOWN FOR ALL LAYERS
    SAVE BUDGET
    PRINT HEAD FOR ALL LAYERS
    PRINT BUDGET
 UBDSV1 SAVING "         STORAGE" ON UNIT  53 AT TIME STEP 95, STRESS PERIOD   3
 UBDSV2 SAVING "   CONSTANT HEAD" ON UNIT  53 AT TIME STEP 95, STRESS PERIOD   3
 UBDSV1 SAVING "FLOW RIGHT FACE " ON UNIT  53 AT TIME STEP 95, STRESS PERIOD   3
 UBDSV1 SAVING "FLOW FRONT FACE " ON UNIT  53 AT TIME STEP 95, STRESS PERIOD   3
 UBDSV1 SAVING "FLOW LOWER FACE " ON UNIT  53 AT TIME STEP 95, STRESS PERIOD   3
1
              HEAD IN LAYER   1 AT END OF TIME STEP  95 IN STRESS PERIOD    3
  ---------------------------------------------------------------------------

            1           2           3           4           5
 ............................................................
   1    9.998       7.499       5.000       2.502      2.9983E-03
   2    9.998       7.499       5.000       2.502      2.9983E-03
   3    9.998       7.499       5.000       2.502      2.9983E-03
   4    9.998       7.499       5.000       2.502      2.9983E-03
   5    9.998       7.499       5.000       2.502      2.9983E-03
1
              HEAD IN LAYER   2 AT END OF TIME STEP  95 IN STRESS PERIOD    3
  ---------------------------------------------------------------------------

            1           2           3           4           5
 ............................................................
   1    9.998       7.499       5.000       2.502      2.9983E-03
   2    9.998       7.499       5.000       2.502      2.9983E-03
   3    9.998       7.499       5.000       2.502      2.9983E-03
   4    9.998       7.499       5.000       2.502      2.9983E-03
   5    9.998       7.499       5.000       2.502      2.9983E-03
1
              HEAD IN LAYER   3 AT END OF TIME STEP  95 IN STRESS PERIOD    3
  ---------------------------------------------------------------------------

            1           2           3           4           5
 ............................................................
   1    9.998       7.499       5.000       2.502      2.9983E-03
   2    9.998       7.499       5.000       2.502      2.9983E-03
   3    9.998       7.499       5.000       2.502      2.9983E-03
   4    9.998       7.499       5.000       2.502      2.9983E-03
   5    9.998       7.499       5.000       2.502      2.9983E-03
1
              HEAD IN LAYER   4 AT END OF TIME STEP  95 IN STRESS PERIOD    3
  ---------------------------------------------------------------------------

            1           2           3           4           5
 ............................................................
   1    9.998       7.499       5.000       2.502      2.9983E-03
   2    9.998       7.499       5.000       2.502      2.9983E-03
   3    9.998       7.499       5.000       2.502      2.9983E-03
   4    9.998       7.499       5.000       2.502      2.9983E-03
   5    9.998       7.499       5.000       2.502      2.9983E-03
1
              HEAD IN LAYER   5 AT END OF TIME STEP  95 IN STRESS PERIOD    3
  ---------------------------------------------------------------------------

            1           2           3           4           5
 ............................................................
   1    9.998       7.499       5.000       2.502      2.9983E-03
   2    9.998       7.499       5.000       2.502      2.9983E-03
   3    9.998       7.499       5.000       2.502      2.9983E-03
   4    9.998       7.499       5.000       2.502      2.9983E-03
   5    9.998       7.499       5.000       2.502      2.9983E-03

 HEAD WILL BE SAVED ON UNIT   51 AT END OF TIME STEP   95, STRESS PERIOD    3

 DRAWDOWN WILL BE SAVED ON UNIT   52 AT END OF TIME STEP   95, STRESS PERIOD    3
1
  VOLUMETRIC BUDGET FOR ENTIRE MODEL AT END OF TIME STEP   95, STRESS PERIOD   3
  ------------------------------------------------------------------------------

     CUMULATIVE VOLUMES      L**3       RATES FOR THIS TIME STEP      L**3/T
     ------------------                 ------------------------

           IN:                                      IN:
           ---                                      ---
             STORAGE =           0.0000               STORAGE =           0.0000
       CONSTANT HEAD =           0.0000         CONSTANT HEAD =           0.0000
               WELLS =           0.0000                 WELLS =           0.0000
     HEAD DEP BOUNDS =      157780.7031       HEAD DEP BOUNDS =         749.5200

            TOTAL IN =      157780.7031              TOTAL IN =         749.5200

          OUT:                                     OUT:
          ----                                     ----
             STORAGE =       15001.0791               STORAGE =           0.0000
       CONSTANT HEAD =           0.0000         CONSTANT HEAD =           0.0000
               WELLS =           0.0000                 WELLS =           0.0000
     HEAD DEP BOUNDS =      142790.1250       HEAD DEP BOUNDS =         749.5873

           TOTAL OUT =      157791.2031             TOTAL OUT =         749.5873

            IN - OUT =         -10.5000              IN - OUT =      -6.7383E-02

 PERCENT DISCREPANCY =          -0.01     PERCENT DISCREPANCY =          -0.01






         TIME SUMMARY AT END OF TIME STEP   95 IN STRESS PERIOD    3
                    SECONDS     MINUTES      HOURS       DAYS        YEARS
                    -----------------------------------------------------------
   TIME STEP LENGTH  86400.      1440.0      24.000      1.0000     2.73785E-03
 STRESS PERIOD TIME 8.20800E+06 1.36800E+05  2280.0      95.000     0.26010    
         TOTAL TIME 1.69344E+07 2.82240E+05  4704.0      196.00     0.53662    
1
 
 SOLVING FOR HEAD 

 OUTPUT CONTROL FOR STRESS PERIOD    3   TIME STEP   96
    SAVE HEAD FOR ALL LAYERS
    SAVE DRAWDOWN FOR ALL LAYERS
    SAVE BUDGET
    PRINT HEAD FOR ALL LAYERS
    PRINT BUDGET
 UBDSV1 SAVING "         STORAGE" ON UNIT  53 AT TIME STEP 96, STRESS PERIOD   3
 UBDSV2 SAVING "   CONSTANT HEAD" ON UNIT  53 AT TIME STEP 96, STRESS PERIOD   3
 UBDSV1 SAVING "FLOW RIGHT FACE " ON UNIT  53 AT TIME STEP 96, STRESS PERIOD   3
 UBDSV1 SAVING "FLOW FRONT FACE " ON UNIT  53 AT TIME STEP 96, STRESS PERIOD   3
 UBDSV1 SAVING "FLOW LOWER FACE " ON UNIT  53 AT TIME STEP 96, STRESS PERIOD   3
1
              HEAD IN LAYER   1 AT END OF TIME STEP  96 IN STRESS PERIOD    3
  ---------------------------------------------------------------------------

            1           2           3           4           5
 ............................................................
   1    9.998       7.499       5.000       2.502      2.9983E-03
   2    9.998       7.499       5.000       2.502      2.9983E-03
   3    9.998       7.499       5.000       2.502      2.9983E-03
   4    9.998       7.499       5.000       2.502      2.9983E-03
   5    9.998       7.499       5.000       2.502      2.9983E-03
1
              HEAD IN LAYER   2 AT END OF TIME STEP  96 IN STRESS PERIOD    3
  ---------------------------------------------------------------------------

            1           2           3           4           5
 ............................................................
   1    9.998       7.499       5.000       2.502      2.9983E-03
   2    9.998       7.499       5.000       2.502      2.9983E-03
   3    9.998       7.499       5.000       2.502      2.9983E-03
   4    9.998       7.499       5.000       2.502      2.9983E-03
   5    9.998       7.499       5.000       2.502      2.9983E-03
1
              HEAD IN LAYER   3 AT END OF TIME STEP  96 IN STRESS PERIOD    3
  ---------------------------------------------------------------------------

            1           2           3           4           5
 ............................................................
   1    9.998       7.499       5.000       2.502      2.9983E-03
   2    9.998       7.499       5.000       2.502      2.9983E-03
   3    9.998       7.499       5.000       2.502      2.9983E-03
   4    9.998       7.499       5.000       2.502      2.9983E-03
   5    9.998       7.499       5.000       2.502      2.9983E-03
1
              HEAD IN LAYER   4 AT END OF TIME STEP  96 IN STRESS PERIOD    3
  ---------------------------------------------------------------------------

            1           2           3           4           5
 ............................................................
   1    9.998       7.499       5.000       2.502      2.9983E-03
   2    9.998       7.499       5.000       2.502      2.9983E-03
   3    9.998       7.499       5.000       2.502      2.9983E-03
   4    9.998       7.499       5.000       2.502      2.9983E-03
   5    9.998       7.499       5.000       2.502      2.9983E-03
1
              HEAD IN LAYER   5 AT END OF TIME STEP  96 IN STRESS PERIOD    3
  ---------------------------------------------------------------------------

            1           2           3           4           5
 ............................................................
   1    9.998       7.499       5.000       2.502      2.9983E-03
   2    9.998       7.499       5.000       2.502      2.9983E-03
   3    9.998       7.499       5.000       2.502      2.9983E-03
   4    9.998       7.499       5.000       2.502      2.9983E-03
   5    9.998       7.499       5.000       2.502      2.9983E-03

 HEAD WILL BE SAVED ON UNIT   51 AT END OF TIME STEP   96, STRESS PERIOD    3

 DRAWDOWN WILL BE SAVED ON UNIT   52 AT END OF TIME STEP   96, STRESS PERIOD    3
1
  VOLUMETRIC BUDGET FOR ENTIRE MODEL AT END OF TIME STEP   96, STRESS PERIOD   3
  ------------------------------------------------------------------------------

     CUMULATIVE VOLUMES      L**3       RATES FOR THIS TIME STEP      L**3/T
     ------------------                 ------------------------

           IN:                                      IN:
           ---                                      ---
             STORAGE =           0.0000               STORAGE =           0.0000
       CONSTANT HEAD =           0.0000         CONSTANT HEAD =           0.0000
               WELLS =           0.0000                 WELLS =           0.0000
     HEAD DEP BOUNDS =      158530.2188       HEAD DEP BOUNDS =         749.5200

            TOTAL IN =      158530.2188              TOTAL IN =         749.5200

          OUT:                                     OUT:
          ----                                     ----
             STORAGE =       15001.0791               STORAGE =           0.0000
       CONSTANT HEAD =           0.0000         CONSTANT HEAD =           0.0000
               WELLS =           0.0000                 WELLS =           0.0000
     HEAD DEP BOUNDS =      143539.7188       HEAD DEP BOUNDS =         749.5873

           TOTAL OUT =      158540.7969             TOTAL OUT =         749.5873

            IN - OUT =         -10.5781              IN - OUT =      -6.7383E-02

 PERCENT DISCREPANCY =          -0.01     PERCENT DISCREPANCY =          -0.01






         TIME SUMMARY AT END OF TIME STEP   96 IN STRESS PERIOD    3
                    SECONDS     MINUTES      HOURS       DAYS        YEARS
                    -----------------------------------------------------------
   TIME STEP LENGTH  86400.      1440.0      24.000      1.0000     2.73785E-03
 STRESS PERIOD TIME 8.29440E+06 1.38240E+05  2304.0      96.000     0.26283    
         TOTAL TIME 1.70208E+07 2.83680E+05  4728.0      197.00     0.53936    
1
 
 SOLVING FOR HEAD 

 OUTPUT CONTROL FOR STRESS PERIOD    3   TIME STEP   97
    SAVE HEAD FOR ALL LAYERS
    SAVE DRAWDOWN FOR ALL LAYERS
    SAVE BUDGET
    PRINT HEAD FOR ALL LAYERS
    PRINT BUDGET
 UBDSV1 SAVING "         STORAGE" ON UNIT  53 AT TIME STEP 97, STRESS PERIOD   3
 UBDSV2 SAVING "   CONSTANT HEAD" ON UNIT  53 AT TIME STEP 97, STRESS PERIOD   3
 UBDSV1 SAVING "FLOW RIGHT FACE " ON UNIT  53 AT TIME STEP 97, STRESS PERIOD   3
 UBDSV1 SAVING "FLOW FRONT FACE " ON UNIT  53 AT TIME STEP 97, STRESS PERIOD   3
 UBDSV1 SAVING "FLOW LOWER FACE " ON UNIT  53 AT TIME STEP 97, STRESS PERIOD   3
1
              HEAD IN LAYER   1 AT END OF TIME STEP  97 IN STRESS PERIOD    3
  ---------------------------------------------------------------------------

            1           2           3           4           5
 ............................................................
   1    9.998       7.499       5.000       2.502      2.9983E-03
   2    9.998       7.499       5.000       2.502      2.9983E-03
   3    9.998       7.499       5.000       2.502      2.9983E-03
   4    9.998       7.499       5.000       2.502      2.9983E-03
   5    9.998       7.499       5.000       2.502      2.9983E-03
1
              HEAD IN LAYER   2 AT END OF TIME STEP  97 IN STRESS PERIOD    3
  ---------------------------------------------------------------------------

            1           2           3           4           5
 ............................................................
   1    9.998       7.499       5.000       2.502      2.9983E-03
   2    9.998       7.499       5.000       2.502      2.9983E-03
   3    9.998       7.499       5.000       2.502      2.9983E-03
   4    9.998       7.499       5.000       2.502      2.9983E-03
   5    9.998       7.499       5.000       2.502      2.9983E-03
1
              HEAD IN LAYER   3 AT END OF TIME STEP  97 IN STRESS PERIOD    3
  ---------------------------------------------------------------------------

            1           2           3           4           5
 ............................................................
   1    9.998       7.499       5.000       2.502      2.9983E-03
   2    9.998       7.499       5.000       2.502      2.9983E-03
   3    9.998       7.499       5.000       2.502      2.9983E-03
   4    9.998       7.499       5.000       2.502      2.9983E-03
   5    9.998       7.499       5.000       2.502      2.9983E-03
1
              HEAD IN LAYER   4 AT END OF TIME STEP  97 IN STRESS PERIOD    3
  ---------------------------------------------------------------------------

            1           2           3           4           5
 ............................................................
   1    9.998       7.499       5.000       2.502      2.9983E-03
   2    9.998       7.499       5.000       2.502      2.9983E-03
   3    9.998       7.499       5.000       2.502      2.9983E-03
   4    9.998       7.499       5.000       2.502      2.9983E-03
   5    9.998       7.499       5.000       2.502      2.9983E-03
1
              HEAD IN LAYER   5 AT END OF TIME STEP  97 IN STRESS PERIOD    3
  ---------------------------------------------------------------------------

            1           2           3           4           5
 ............................................................
   1    9.998       7.499       5.000       2.502      2.9983E-03
   2    9.998       7.499       5.000       2.502      2.9983E-03
   3    9.998       7.499       5.000       2.502      2.9983E-03
   4    9.998       7.499       5.000       2.502      2.9983E-03
   5    9.998       7.499       5.000       2.502      2.9983E-03

 HEAD WILL BE SAVED ON UNIT   51 AT END OF TIME STEP   97, STRESS PERIOD    3

 DRAWDOWN WILL BE SAVED ON UNIT   52 AT END OF TIME STEP   97, STRESS PERIOD    3
1
  VOLUMETRIC BUDGET FOR ENTIRE MODEL AT END OF TIME STEP   97, STRESS PERIOD   3
  ------------------------------------------------------------------------------

     CUMULATIVE VOLUMES      L**3       RATES FOR THIS TIME STEP      L**3/T
     ------------------                 ------------------------

           IN:                                      IN:
           ---                                      ---
             STORAGE =           0.0000               STORAGE =           0.0000
       CONSTANT HEAD =           0.0000         CONSTANT HEAD =           0.0000
               WELLS =           0.0000                 WELLS =           0.0000
     HEAD DEP BOUNDS =      159279.7344       HEAD DEP BOUNDS =         749.5200

            TOTAL IN =      159279.7344              TOTAL IN =         749.5200

          OUT:                                     OUT:
          ----                                     ----
             STORAGE =       15001.0791               STORAGE =           0.0000
       CONSTANT HEAD =           0.0000         CONSTANT HEAD =           0.0000
               WELLS =           0.0000                 WELLS =           0.0000
     HEAD DEP BOUNDS =      144289.3125       HEAD DEP BOUNDS =         749.5873

           TOTAL OUT =      159290.3906             TOTAL OUT =         749.5873

            IN - OUT =         -10.6562              IN - OUT =      -6.7383E-02

 PERCENT DISCREPANCY =          -0.01     PERCENT DISCREPANCY =          -0.01






         TIME SUMMARY AT END OF TIME STEP   97 IN STRESS PERIOD    3
                    SECONDS     MINUTES      HOURS       DAYS        YEARS
                    -----------------------------------------------------------
   TIME STEP LENGTH  86400.      1440.0      24.000      1.0000     2.73785E-03
 STRESS PERIOD TIME 8.38080E+06 1.39680E+05  2328.0      97.000     0.26557    
         TOTAL TIME 1.71072E+07 2.85120E+05  4752.0      198.00     0.54209    
1
 
 SOLVING FOR HEAD 

 OUTPUT CONTROL FOR STRESS PERIOD    3   TIME STEP   98
    SAVE HEAD FOR ALL LAYERS
    SAVE DRAWDOWN FOR ALL LAYERS
    SAVE BUDGET
    PRINT HEAD FOR ALL LAYERS
    PRINT BUDGET
 UBDSV1 SAVING "         STORAGE" ON UNIT  53 AT TIME STEP 98, STRESS PERIOD   3
 UBDSV2 SAVING "   CONSTANT HEAD" ON UNIT  53 AT TIME STEP 98, STRESS PERIOD   3
 UBDSV1 SAVING "FLOW RIGHT FACE " ON UNIT  53 AT TIME STEP 98, STRESS PERIOD   3
 UBDSV1 SAVING "FLOW FRONT FACE " ON UNIT  53 AT TIME STEP 98, STRESS PERIOD   3
 UBDSV1 SAVING "FLOW LOWER FACE " ON UNIT  53 AT TIME STEP 98, STRESS PERIOD   3
1
              HEAD IN LAYER   1 AT END OF TIME STEP  98 IN STRESS PERIOD    3
  ---------------------------------------------------------------------------

            1           2           3           4           5
 ............................................................
   1    9.998       7.499       5.000       2.502      2.9983E-03
   2    9.998       7.499       5.000       2.502      2.9983E-03
   3    9.998       7.499       5.000       2.502      2.9983E-03
   4    9.998       7.499       5.000       2.502      2.9983E-03
   5    9.998       7.499       5.000       2.502      2.9983E-03
1
              HEAD IN LAYER   2 AT END OF TIME STEP  98 IN STRESS PERIOD    3
  ---------------------------------------------------------------------------

            1           2           3           4           5
 ............................................................
   1    9.998       7.499       5.000       2.502      2.9983E-03
   2    9.998       7.499       5.000       2.502      2.9983E-03
   3    9.998       7.499       5.000       2.502      2.9983E-03
   4    9.998       7.499       5.000       2.502      2.9983E-03
   5    9.998       7.499       5.000       2.502      2.9983E-03
1
              HEAD IN LAYER   3 AT END OF TIME STEP  98 IN STRESS PERIOD    3
  ---------------------------------------------------------------------------

            1           2           3           4           5
 ............................................................
   1    9.998       7.499       5.000       2.502      2.9983E-03
   2    9.998       7.499       5.000       2.502      2.9983E-03
   3    9.998       7.499       5.000       2.502      2.9983E-03
   4    9.998       7.499       5.000       2.502      2.9983E-03
   5    9.998       7.499       5.000       2.502      2.9983E-03
1
              HEAD IN LAYER   4 AT END OF TIME STEP  98 IN STRESS PERIOD    3
  ---------------------------------------------------------------------------

            1           2           3           4           5
 ............................................................
   1    9.998       7.499       5.000       2.502      2.9983E-03
   2    9.998       7.499       5.000       2.502      2.9983E-03
   3    9.998       7.499       5.000       2.502      2.9983E-03
   4    9.998       7.499       5.000       2.502      2.9983E-03
   5    9.998       7.499       5.000       2.502      2.9983E-03
1
              HEAD IN LAYER   5 AT END OF TIME STEP  98 IN STRESS PERIOD    3
  ---------------------------------------------------------------------------

            1           2           3           4           5
 ............................................................
   1    9.998       7.499       5.000       2.502      2.9983E-03
   2    9.998       7.499       5.000       2.502      2.9983E-03
   3    9.998       7.499       5.000       2.502      2.9983E-03
   4    9.998       7.499       5.000       2.502      2.9983E-03
   5    9.998       7.499       5.000       2.502      2.9983E-03

 HEAD WILL BE SAVED ON UNIT   51 AT END OF TIME STEP   98, STRESS PERIOD    3

 DRAWDOWN WILL BE SAVED ON UNIT   52 AT END OF TIME STEP   98, STRESS PERIOD    3
1
  VOLUMETRIC BUDGET FOR ENTIRE MODEL AT END OF TIME STEP   98, STRESS PERIOD   3
  ------------------------------------------------------------------------------

     CUMULATIVE VOLUMES      L**3       RATES FOR THIS TIME STEP      L**3/T
     ------------------                 ------------------------

           IN:                                      IN:
           ---                                      ---
             STORAGE =           0.0000               STORAGE =           0.0000
       CONSTANT HEAD =           0.0000         CONSTANT HEAD =           0.0000
               WELLS =           0.0000                 WELLS =           0.0000
     HEAD DEP BOUNDS =      160029.2500       HEAD DEP BOUNDS =         749.5200

            TOTAL IN =      160029.2500              TOTAL IN =         749.5200

          OUT:                                     OUT:
          ----                                     ----
             STORAGE =       15001.0791               STORAGE =           0.0000
       CONSTANT HEAD =           0.0000         CONSTANT HEAD =           0.0000
               WELLS =           0.0000                 WELLS =           0.0000
     HEAD DEP BOUNDS =      145038.9062       HEAD DEP BOUNDS =         749.5873

           TOTAL OUT =      160039.9844             TOTAL OUT =         749.5873

            IN - OUT =         -10.7344              IN - OUT =      -6.7383E-02

 PERCENT DISCREPANCY =          -0.01     PERCENT DISCREPANCY =          -0.01






         TIME SUMMARY AT END OF TIME STEP   98 IN STRESS PERIOD    3
                    SECONDS     MINUTES      HOURS       DAYS        YEARS
                    -----------------------------------------------------------
   TIME STEP LENGTH  86400.      1440.0      24.000      1.0000     2.73785E-03
 STRESS PERIOD TIME 8.46720E+06 1.41120E+05  2352.0      98.000     0.26831    
         TOTAL TIME 1.71936E+07 2.86560E+05  4776.0      199.00     0.54483    
1
 
 SOLVING FOR HEAD 

 OUTPUT CONTROL FOR STRESS PERIOD    3   TIME STEP   99
    SAVE HEAD FOR ALL LAYERS
    SAVE DRAWDOWN FOR ALL LAYERS
    SAVE BUDGET
    PRINT HEAD FOR ALL LAYERS
    PRINT BUDGET
 UBDSV1 SAVING "         STORAGE" ON UNIT  53 AT TIME STEP 99, STRESS PERIOD   3
 UBDSV2 SAVING "   CONSTANT HEAD" ON UNIT  53 AT TIME STEP 99, STRESS PERIOD   3
 UBDSV1 SAVING "FLOW RIGHT FACE " ON UNIT  53 AT TIME STEP 99, STRESS PERIOD   3
 UBDSV1 SAVING "FLOW FRONT FACE " ON UNIT  53 AT TIME STEP 99, STRESS PERIOD   3
 UBDSV1 SAVING "FLOW LOWER FACE " ON UNIT  53 AT TIME STEP 99, STRESS PERIOD   3
1
              HEAD IN LAYER   1 AT END OF TIME STEP  99 IN STRESS PERIOD    3
  ---------------------------------------------------------------------------

            1           2           3           4           5
 ............................................................
   1    9.998       7.499       5.000       2.502      2.9983E-03
   2    9.998       7.499       5.000       2.502      2.9983E-03
   3    9.998       7.499       5.000       2.502      2.9983E-03
   4    9.998       7.499       5.000       2.502      2.9983E-03
   5    9.998       7.499       5.000       2.502      2.9983E-03
1
              HEAD IN LAYER   2 AT END OF TIME STEP  99 IN STRESS PERIOD    3
  ---------------------------------------------------------------------------

            1           2           3           4           5
 ............................................................
   1    9.998       7.499       5.000       2.502      2.9983E-03
   2    9.998       7.499       5.000       2.502      2.9983E-03
   3    9.998       7.499       5.000       2.502      2.9983E-03
   4    9.998       7.499       5.000       2.502      2.9983E-03
   5    9.998       7.499       5.000       2.502      2.9983E-03
1
              HEAD IN LAYER   3 AT END OF TIME STEP  99 IN STRESS PERIOD    3
  ---------------------------------------------------------------------------

            1           2           3           4           5
 ............................................................
   1    9.998       7.499       5.000       2.502      2.9983E-03
   2    9.998       7.499       5.000       2.502      2.9983E-03
   3    9.998       7.499       5.000       2.502      2.9983E-03
   4    9.998       7.499       5.000       2.502      2.9983E-03
   5    9.998       7.499       5.000       2.502      2.9983E-03
1
              HEAD IN LAYER   4 AT END OF TIME STEP  99 IN STRESS PERIOD    3
  ---------------------------------------------------------------------------

            1           2           3           4           5
 ............................................................
   1    9.998       7.499       5.000       2.502      2.9983E-03
   2    9.998       7.499       5.000       2.502      2.9983E-03
   3    9.998       7.499       5.000       2.502      2.9983E-03
   4    9.998       7.499       5.000       2.502      2.9983E-03
   5    9.998       7.499       5.000       2.502      2.9983E-03
1
              HEAD IN LAYER   5 AT END OF TIME STEP  99 IN STRESS PERIOD    3
  ---------------------------------------------------------------------------

            1           2           3           4           5
 ............................................................
   1    9.998       7.499       5.000       2.502      2.9983E-03
   2    9.998       7.499       5.000       2.502      2.9983E-03
   3    9.998       7.499       5.000       2.502      2.9983E-03
   4    9.998       7.499       5.000       2.502      2.9983E-03
   5    9.998       7.499       5.000       2.502      2.9983E-03

 HEAD WILL BE SAVED ON UNIT   51 AT END OF TIME STEP   99, STRESS PERIOD    3

 DRAWDOWN WILL BE SAVED ON UNIT   52 AT END OF TIME STEP   99, STRESS PERIOD    3
1
  VOLUMETRIC BUDGET FOR ENTIRE MODEL AT END OF TIME STEP   99, STRESS PERIOD   3
  ------------------------------------------------------------------------------

     CUMULATIVE VOLUMES      L**3       RATES FOR THIS TIME STEP      L**3/T
     ------------------                 ------------------------

           IN:                                      IN:
           ---                                      ---
             STORAGE =           0.0000               STORAGE =           0.0000
       CONSTANT HEAD =           0.0000         CONSTANT HEAD =           0.0000
               WELLS =           0.0000                 WELLS =           0.0000
     HEAD DEP BOUNDS =      160778.7656       HEAD DEP BOUNDS =         749.5200

            TOTAL IN =      160778.7656              TOTAL IN =         749.5200

          OUT:                                     OUT:
          ----                                     ----
             STORAGE =       15001.0791               STORAGE =           0.0000
       CONSTANT HEAD =           0.0000         CONSTANT HEAD =           0.0000
               WELLS =           0.0000                 WELLS =           0.0000
     HEAD DEP BOUNDS =      145788.5000       HEAD DEP BOUNDS =         749.5873

           TOTAL OUT =      160789.5781             TOTAL OUT =         749.5873

            IN - OUT =         -10.8125              IN - OUT =      -6.7383E-02

 PERCENT DISCREPANCY =          -0.01     PERCENT DISCREPANCY =          -0.01






         TIME SUMMARY AT END OF TIME STEP   99 IN STRESS PERIOD    3
                    SECONDS     MINUTES      HOURS       DAYS        YEARS
                    -----------------------------------------------------------
   TIME STEP LENGTH  86400.      1440.0      24.000      1.0000     2.73785E-03
 STRESS PERIOD TIME 8.55360E+06 1.42560E+05  2376.0      99.000     0.27105    
         TOTAL TIME 1.72800E+07 2.88000E+05  4800.0      200.00     0.54757    
1
 
 SOLVING FOR HEAD 

 OUTPUT CONTROL FOR STRESS PERIOD    3   TIME STEP  100
    SAVE HEAD FOR ALL LAYERS
    SAVE DRAWDOWN FOR ALL LAYERS
    SAVE BUDGET
    PRINT HEAD FOR ALL LAYERS
    PRINT BUDGET
 UBDSV1 SAVING "         STORAGE" ON UNIT  53 AT TIME STEP100, STRESS PERIOD   3
 UBDSV2 SAVING "   CONSTANT HEAD" ON UNIT  53 AT TIME STEP100, STRESS PERIOD   3
 UBDSV1 SAVING "FLOW RIGHT FACE " ON UNIT  53 AT TIME STEP100, STRESS PERIOD   3
 UBDSV1 SAVING "FLOW FRONT FACE " ON UNIT  53 AT TIME STEP100, STRESS PERIOD   3
 UBDSV1 SAVING "FLOW LOWER FACE " ON UNIT  53 AT TIME STEP100, STRESS PERIOD   3
1
              HEAD IN LAYER   1 AT END OF TIME STEP 100 IN STRESS PERIOD    3
  ---------------------------------------------------------------------------

            1           2           3           4           5
 ............................................................
   1    9.998       7.499       5.000       2.502      2.9983E-03
   2    9.998       7.499       5.000       2.502      2.9983E-03
   3    9.998       7.499       5.000       2.502      2.9983E-03
   4    9.998       7.499       5.000       2.502      2.9983E-03
   5    9.998       7.499       5.000       2.502      2.9983E-03
1
              HEAD IN LAYER   2 AT END OF TIME STEP 100 IN STRESS PERIOD    3
  ---------------------------------------------------------------------------

            1           2           3           4           5
 ............................................................
   1    9.998       7.499       5.000       2.502      2.9983E-03
   2    9.998       7.499       5.000       2.502      2.9983E-03
   3    9.998       7.499       5.000       2.502      2.9983E-03
   4    9.998       7.499       5.000       2.502      2.9983E-03
   5    9.998       7.499       5.000       2.502      2.9983E-03
1
              HEAD IN LAYER   3 AT END OF TIME STEP 100 IN STRESS PERIOD    3
  ---------------------------------------------------------------------------

            1           2           3           4           5
 ............................................................
   1    9.998       7.499       5.000       2.502      2.9983E-03
   2    9.998       7.499       5.000       2.502      2.9983E-03
   3    9.998       7.499       5.000       2.502      2.9983E-03
   4    9.998       7.499       5.000       2.502      2.9983E-03
   5    9.998       7.499       5.000       2.502      2.9983E-03
1
              HEAD IN LAYER   4 AT END OF TIME STEP 100 IN STRESS PERIOD    3
  ---------------------------------------------------------------------------

            1           2           3           4           5
 ............................................................
   1    9.998       7.499       5.000       2.502      2.9983E-03
   2    9.998       7.499       5.000       2.502      2.9983E-03
   3    9.998       7.499       5.000       2.502      2.9983E-03
   4    9.998       7.499       5.000       2.502      2.9983E-03
   5    9.998       7.499       5.000       2.502      2.9983E-03
1
              HEAD IN LAYER   5 AT END OF TIME STEP 100 IN STRESS PERIOD    3
  ---------------------------------------------------------------------------

            1           2           3           4           5
 ............................................................
   1    9.998       7.499       5.000       2.502      2.9983E-03
   2    9.998       7.499       5.000       2.502      2.9983E-03
   3    9.998       7.499       5.000       2.502      2.9983E-03
   4    9.998       7.499       5.000       2.502      2.9983E-03
   5    9.998       7.499       5.000       2.502      2.9983E-03

 HEAD WILL BE SAVED ON UNIT   51 AT END OF TIME STEP  100, STRESS PERIOD    3

 DRAWDOWN WILL BE SAVED ON UNIT   52 AT END OF TIME STEP  100, STRESS PERIOD    3
1
  VOLUMETRIC BUDGET FOR ENTIRE MODEL AT END OF TIME STEP  100, STRESS PERIOD   3
  ------------------------------------------------------------------------------

     CUMULATIVE VOLUMES      L**3       RATES FOR THIS TIME STEP      L**3/T
     ------------------                 ------------------------

           IN:                                      IN:
           ---                                      ---
             STORAGE =           0.0000               STORAGE =           0.0000
       CONSTANT HEAD =           0.0000         CONSTANT HEAD =           0.0000
               WELLS =           0.0000                 WELLS =           0.0000
     HEAD DEP BOUNDS =      161528.2812       HEAD DEP BOUNDS =         749.5200

            TOTAL IN =      161528.2812              TOTAL IN =         749.5200

          OUT:                                     OUT:
          ----                                     ----
             STORAGE =       15001.0791               STORAGE =           0.0000
       CONSTANT HEAD =           0.0000         CONSTANT HEAD =           0.0000
               WELLS =           0.0000                 WELLS =           0.0000
     HEAD DEP BOUNDS =      146538.0938       HEAD DEP BOUNDS =         749.5873

           TOTAL OUT =      161539.1719             TOTAL OUT =         749.5873

            IN - OUT =         -10.8906              IN - OUT =      -6.7383E-02

 PERCENT DISCREPANCY =          -0.01     PERCENT DISCREPANCY =          -0.01






         TIME SUMMARY AT END OF TIME STEP  100 IN STRESS PERIOD    3
                    SECONDS     MINUTES      HOURS       DAYS        YEARS
                    -----------------------------------------------------------
   TIME STEP LENGTH  86400.      1440.0      24.000      1.0000     2.73785E-03
 STRESS PERIOD TIME 8.64000E+06 1.44000E+05  2400.0      100.00     0.27379    
         TOTAL TIME 1.73664E+07 2.89440E+05  4824.0      201.00     0.55031    
1

 Run end date and time (yyyy/mm/dd hh:mm:ss): 2021/10/02 14:40:08
 Elapsed run time:  0.212 Seconds

